Structure_328
Score 	 0.0, smilesprid 	smiles	 smilestrue 	smiles	 similartanimoto 	0	 similardice 	0

   12   11  0  0  0  0            999 V3000
M  V30 BEGIN CTAB
M  V30 COUNTS 12 11 0 0 0
M  V30 BEGIN ATOM
M  V30 1 C -1.7578 -0.7812 0.0000 0
M  V30 2 C -0.5859 0.1953 0.0000 0
M  V30 3 C 1.7578 0.1953 0.0000 0
M  V30 4 N -0.7812 1.3672 0.0000 0
M  V30 5 N 0.3906 -0.5859 0.0000 0
M  V30 6 N 2.7344 -0.5859 0.0000 0
M  V30 7 O -3.1250 -0.3906 0.0000 0
M  V30 8 H -1.5625 -1.9531 0.0000 0
M  V30 9 H -1.5625 1.7578 0.0000 0
M  V30 10 H 0.5859 -1.7578 0.0000 0
M  V30 11 H 1.7578 1.1719 0.0000 0
M  V30 12 H 3.5156 0.1953 0.0000 0
M  V30 END ATOM
M  V30 BEGIN BOND
M  V30 1 1 1 2
M  V30 2 2 1 7
M  V30 3 1 1 8
M  V30 4 2 2 4
M  V30 5 1 2 5
M  V30 6 1 3 5
M  V30 7 2 3 6
M  V30 8 1 3 11
M  V30 9 1 4 9
M  V30 10 1 5 10
M  V30 11 1 6 12
M  V30 END BOND
M  V30 END CTAB
M  END
>  <ID>
328
$$$$
Structure_1
Score 	 6.0, smilesprid 	smiles	 smilestrue 	smiles	 similartanimoto 	0	 similardice 	0

   12   11  0  0  0  0            999 V3000
M  V30 BEGIN CTAB
M  V30 COUNTS 12 11 0 0 0
M  V30 BEGIN ATOM
M  V30 1 C -1.7578 -0.7812 0.0000 0
M  V30 2 C -0.5859 0.1953 0.0000 0
M  V30 3 C 1.7578 0.1953 0.0000 0
M  V30 4 N -0.7812 1.3672 0.0000 0
M  V30 5 N 0.3906 -0.5859 0.0000 0
M  V30 6 N 2.7344 -0.5859 0.0000 0
M  V30 7 O -3.1250 -0.3906 0.0000 0
M  V30 8 H -1.5625 -1.9531 0.0000 0
M  V30 9 H -1.5625 1.7578 0.0000 0
M  V30 10 H 0.5859 -1.7578 0.0000 0
M  V30 11 H 1.7578 1.1719 0.0000 0
M  V30 12 H 3.5156 0.1953 0.0000 0
M  V30 END ATOM
M  V30 BEGIN BOND
M  V30 1 1 1 2
M  V30 2 1 1 7
M  V30 3 1 1 8
M  V30 4 1 2 4
M  V30 5 1 2 5
M  V30 6 1 3 5
M  V30 7 1 3 6
M  V30 8 1 3 11
M  V30 9 1 4 9
M  V30 10 1 5 10
M  V30 11 1 6 12
M  V30 END BOND
M  V30 END CTAB
M  END
>  <ID>
1
$$$$
Structure_2
Score 	 4.0, smilesprid 	smiles	 smilestrue 	smiles	 similartanimoto 	0	 similardice 	0

   12   11  0  0  0  0            999 V3000
M  V30 BEGIN CTAB
M  V30 COUNTS 12 11 0 0 0
M  V30 BEGIN ATOM
M  V30 1 C -1.7578 -0.7812 0.0000 0
M  V30 2 C -0.5859 0.1953 0.0000 0
M  V30 3 C 1.7578 0.1953 0.0000 0
M  V30 4 N -0.7812 1.3672 0.0000 0
M  V30 5 N 0.3906 -0.5859 0.0000 0
M  V30 6 N 2.7344 -0.5859 0.0000 0
M  V30 7 O -3.1250 -0.3906 0.0000 0
M  V30 8 H -1.5625 -1.9531 0.0000 0
M  V30 9 H -1.5625 1.7578 0.0000 0
M  V30 10 H 0.5859 -1.7578 0.0000 0
M  V30 11 H 1.7578 1.1719 0.0000 0
M  V30 12 H 3.5156 0.1953 0.0000 0
M  V30 END ATOM
M  V30 BEGIN BOND
M  V30 1 2 1 2
M  V30 2 1 1 7
M  V30 3 1 1 8
M  V30 4 1 2 4
M  V30 5 1 2 5
M  V30 6 1 3 5
M  V30 7 1 3 6
M  V30 8 1 3 11
M  V30 9 1 4 9
M  V30 10 1 5 10
M  V30 11 1 6 12
M  V30 END BOND
M  V30 END CTAB
M  END
>  <ID>
2
$$$$
Structure_3
Score 	 6.0, smilesprid 	smiles	 smilestrue 	smiles	 similartanimoto 	0	 similardice 	0

   12   11  0  0  0  0            999 V3000
M  V30 BEGIN CTAB
M  V30 COUNTS 12 11 0 0 0
M  V30 BEGIN ATOM
M  V30 1 C -1.7578 -0.7812 0.0000 0
M  V30 2 C -0.5859 0.1953 0.0000 0
M  V30 3 C 1.7578 0.1953 0.0000 0
M  V30 4 N -0.7812 1.3672 0.0000 0
M  V30 5 N 0.3906 -0.5859 0.0000 0
M  V30 6 N 2.7344 -0.5859 0.0000 0
M  V30 7 O -3.1250 -0.3906 0.0000 0
M  V30 8 H -1.5625 -1.9531 0.0000 0
M  V30 9 H -1.5625 1.7578 0.0000 0
M  V30 10 H 0.5859 -1.7578 0.0000 0
M  V30 11 H 1.7578 1.1719 0.0000 0
M  V30 12 H 3.5156 0.1953 0.0000 0
M  V30 END ATOM
M  V30 BEGIN BOND
M  V30 1 3 1 2
M  V30 2 1 1 7
M  V30 3 1 1 8
M  V30 4 1 2 4
M  V30 5 1 2 5
M  V30 6 1 3 5
M  V30 7 1 3 6
M  V30 8 1 3 11
M  V30 9 1 4 9
M  V30 10 1 5 10
M  V30 11 1 6 12
M  V30 END BOND
M  V30 END CTAB
M  END
>  <ID>
3
$$$$
Structure_4
Score 	 4.0, smilesprid 	smiles	 smilestrue 	smiles	 similartanimoto 	0	 similardice 	0

   12   11  0  0  0  0            999 V3000
M  V30 BEGIN CTAB
M  V30 COUNTS 12 11 0 0 0
M  V30 BEGIN ATOM
M  V30 1 C -1.7578 -0.7812 0.0000 0
M  V30 2 C -0.5859 0.1953 0.0000 0
M  V30 3 C 1.7578 0.1953 0.0000 0
M  V30 4 N -0.7812 1.3672 0.0000 0
M  V30 5 N 0.3906 -0.5859 0.0000 0
M  V30 6 N 2.7344 -0.5859 0.0000 0
M  V30 7 O -3.1250 -0.3906 0.0000 0
M  V30 8 H -1.5625 -1.9531 0.0000 0
M  V30 9 H -1.5625 1.7578 0.0000 0
M  V30 10 H 0.5859 -1.7578 0.0000 0
M  V30 11 H 1.7578 1.1719 0.0000 0
M  V30 12 H 3.5156 0.1953 0.0000 0
M  V30 END ATOM
M  V30 BEGIN BOND
M  V30 1 1 1 2
M  V30 2 1 1 7
M  V30 3 1 1 8
M  V30 4 2 2 4
M  V30 5 1 2 5
M  V30 6 1 3 5
M  V30 7 1 3 6
M  V30 8 1 3 11
M  V30 9 1 4 9
M  V30 10 1 5 10
M  V30 11 1 6 12
M  V30 END BOND
M  V30 END CTAB
M  END
>  <ID>
4
$$$$
Structure_5
Score 	 4.0, smilesprid 	smiles	 smilestrue 	smiles	 similartanimoto 	0	 similardice 	0

   12   11  0  0  0  0            999 V3000
M  V30 BEGIN CTAB
M  V30 COUNTS 12 11 0 0 0
M  V30 BEGIN ATOM
M  V30 1 C -1.7578 -0.7812 0.0000 0
M  V30 2 C -0.5859 0.1953 0.0000 0
M  V30 3 C 1.7578 0.1953 0.0000 0
M  V30 4 N -0.7812 1.3672 0.0000 0
M  V30 5 N 0.3906 -0.5859 0.0000 0
M  V30 6 N 2.7344 -0.5859 0.0000 0
M  V30 7 O -3.1250 -0.3906 0.0000 0
M  V30 8 H -1.5625 -1.9531 0.0000 0
M  V30 9 H -1.5625 1.7578 0.0000 0
M  V30 10 H 0.5859 -1.7578 0.0000 0
M  V30 11 H 1.7578 1.1719 0.0000 0
M  V30 12 H 3.5156 0.1953 0.0000 0
M  V30 END ATOM
M  V30 BEGIN BOND
M  V30 1 2 1 2
M  V30 2 1 1 7
M  V30 3 1 1 8
M  V30 4 2 2 4
M  V30 5 1 2 5
M  V30 6 1 3 5
M  V30 7 1 3 6
M  V30 8 1 3 11
M  V30 9 1 4 9
M  V30 10 1 5 10
M  V30 11 1 6 12
M  V30 END BOND
M  V30 END CTAB
M  END
>  <ID>
5
$$$$
Structure_6
Score 	 6.0, smilesprid 	smiles	 smilestrue 	smiles	 similartanimoto 	0	 similardice 	0

   12   11  0  0  0  0            999 V3000
M  V30 BEGIN CTAB
M  V30 COUNTS 12 11 0 0 0
M  V30 BEGIN ATOM
M  V30 1 C -1.7578 -0.7812 0.0000 0
M  V30 2 C -0.5859 0.1953 0.0000 0
M  V30 3 C 1.7578 0.1953 0.0000 0
M  V30 4 N -0.7812 1.3672 0.0000 0
M  V30 5 N 0.3906 -0.5859 0.0000 0
M  V30 6 N 2.7344 -0.5859 0.0000 0
M  V30 7 O -3.1250 -0.3906 0.0000 0
M  V30 8 H -1.5625 -1.9531 0.0000 0
M  V30 9 H -1.5625 1.7578 0.0000 0
M  V30 10 H 0.5859 -1.7578 0.0000 0
M  V30 11 H 1.7578 1.1719 0.0000 0
M  V30 12 H 3.5156 0.1953 0.0000 0
M  V30 END ATOM
M  V30 BEGIN BOND
M  V30 1 3 1 2
M  V30 2 1 1 7
M  V30 3 1 1 8
M  V30 4 2 2 4
M  V30 5 1 2 5
M  V30 6 1 3 5
M  V30 7 1 3 6
M  V30 8 1 3 11
M  V30 9 1 4 9
M  V30 10 1 5 10
M  V30 11 1 6 12
M  V30 END BOND
M  V30 END CTAB
M  END
>  <ID>
6
$$$$
Structure_7
Score 	 6.0, smilesprid 	smiles	 smilestrue 	smiles	 similartanimoto 	0	 similardice 	0

   12   11  0  0  0  0            999 V3000
M  V30 BEGIN CTAB
M  V30 COUNTS 12 11 0 0 0
M  V30 BEGIN ATOM
M  V30 1 C -1.7578 -0.7812 0.0000 0
M  V30 2 C -0.5859 0.1953 0.0000 0
M  V30 3 C 1.7578 0.1953 0.0000 0
M  V30 4 N -0.7812 1.3672 0.0000 0
M  V30 5 N 0.3906 -0.5859 0.0000 0
M  V30 6 N 2.7344 -0.5859 0.0000 0
M  V30 7 O -3.1250 -0.3906 0.0000 0
M  V30 8 H -1.5625 -1.9531 0.0000 0
M  V30 9 H -1.5625 1.7578 0.0000 0
M  V30 10 H 0.5859 -1.7578 0.0000 0
M  V30 11 H 1.7578 1.1719 0.0000 0
M  V30 12 H 3.5156 0.1953 0.0000 0
M  V30 END ATOM
M  V30 BEGIN BOND
M  V30 1 1 1 2
M  V30 2 1 1 7
M  V30 3 1 1 8
M  V30 4 3 2 4
M  V30 5 1 2 5
M  V30 6 1 3 5
M  V30 7 1 3 6
M  V30 8 1 3 11
M  V30 9 1 4 9
M  V30 10 1 5 10
M  V30 11 1 6 12
M  V30 END BOND
M  V30 END CTAB
M  END
>  <ID>
7
$$$$
Structure_8
Score 	 6.0, smilesprid 	smiles	 smilestrue 	smiles	 similartanimoto 	0	 similardice 	0

   12   11  0  0  0  0            999 V3000
M  V30 BEGIN CTAB
M  V30 COUNTS 12 11 0 0 0
M  V30 BEGIN ATOM
M  V30 1 C -1.7578 -0.7812 0.0000 0
M  V30 2 C -0.5859 0.1953 0.0000 0
M  V30 3 C 1.7578 0.1953 0.0000 0
M  V30 4 N -0.7812 1.3672 0.0000 0
M  V30 5 N 0.3906 -0.5859 0.0000 0
M  V30 6 N 2.7344 -0.5859 0.0000 0
M  V30 7 O -3.1250 -0.3906 0.0000 0
M  V30 8 H -1.5625 -1.9531 0.0000 0
M  V30 9 H -1.5625 1.7578 0.0000 0
M  V30 10 H 0.5859 -1.7578 0.0000 0
M  V30 11 H 1.7578 1.1719 0.0000 0
M  V30 12 H 3.5156 0.1953 0.0000 0
M  V30 END ATOM
M  V30 BEGIN BOND
M  V30 1 2 1 2
M  V30 2 1 1 7
M  V30 3 1 1 8
M  V30 4 3 2 4
M  V30 5 1 2 5
M  V30 6 1 3 5
M  V30 7 1 3 6
M  V30 8 1 3 11
M  V30 9 1 4 9
M  V30 10 1 5 10
M  V30 11 1 6 12
M  V30 END BOND
M  V30 END CTAB
M  END
>  <ID>
8
$$$$
Structure_9
Score 	 8.0, smilesprid 	smiles	 smilestrue 	smiles	 similartanimoto 	0	 similardice 	0

   12   11  0  0  0  0            999 V3000
M  V30 BEGIN CTAB
M  V30 COUNTS 12 11 0 0 0
M  V30 BEGIN ATOM
M  V30 1 C -1.7578 -0.7812 0.0000 0
M  V30 2 C -0.5859 0.1953 0.0000 0
M  V30 3 C 1.7578 0.1953 0.0000 0
M  V30 4 N -0.7812 1.3672 0.0000 0
M  V30 5 N 0.3906 -0.5859 0.0000 0
M  V30 6 N 2.7344 -0.5859 0.0000 0
M  V30 7 O -3.1250 -0.3906 0.0000 0
M  V30 8 H -1.5625 -1.9531 0.0000 0
M  V30 9 H -1.5625 1.7578 0.0000 0
M  V30 10 H 0.5859 -1.7578 0.0000 0
M  V30 11 H 1.7578 1.1719 0.0000 0
M  V30 12 H 3.5156 0.1953 0.0000 0
M  V30 END ATOM
M  V30 BEGIN BOND
M  V30 1 3 1 2
M  V30 2 1 1 7
M  V30 3 1 1 8
M  V30 4 3 2 4
M  V30 5 1 2 5
M  V30 6 1 3 5
M  V30 7 1 3 6
M  V30 8 1 3 11
M  V30 9 1 4 9
M  V30 10 1 5 10
M  V30 11 1 6 12
M  V30 END BOND
M  V30 END CTAB
M  END
>  <ID>
9
$$$$
Structure_10
Score 	 6.0, smilesprid 	smiles	 smilestrue 	smiles	 similartanimoto 	0	 similardice 	0

   12   11  0  0  0  0            999 V3000
M  V30 BEGIN CTAB
M  V30 COUNTS 12 11 0 0 0
M  V30 BEGIN ATOM
M  V30 1 C -1.7578 -0.7812 0.0000 0
M  V30 2 C -0.5859 0.1953 0.0000 0
M  V30 3 C 1.7578 0.1953 0.0000 0
M  V30 4 N -0.7812 1.3672 0.0000 0
M  V30 5 N 0.3906 -0.5859 0.0000 0
M  V30 6 N 2.7344 -0.5859 0.0000 0
M  V30 7 O -3.1250 -0.3906 0.0000 0
M  V30 8 H -1.5625 -1.9531 0.0000 0
M  V30 9 H -1.5625 1.7578 0.0000 0
M  V30 10 H 0.5859 -1.7578 0.0000 0
M  V30 11 H 1.7578 1.1719 0.0000 0
M  V30 12 H 3.5156 0.1953 0.0000 0
M  V30 END ATOM
M  V30 BEGIN BOND
M  V30 1 1 1 2
M  V30 2 1 1 7
M  V30 3 1 1 8
M  V30 4 1 2 4
M  V30 5 2 2 5
M  V30 6 1 3 5
M  V30 7 1 3 6
M  V30 8 1 3 11
M  V30 9 1 4 9
M  V30 10 1 5 10
M  V30 11 1 6 12
M  V30 END BOND
M  V30 END CTAB
M  END
>  <ID>
10
$$$$
Structure_11
Score 	 6.0, smilesprid 	smiles	 smilestrue 	smiles	 similartanimoto 	0	 similardice 	0

   12   11  0  0  0  0            999 V3000
M  V30 BEGIN CTAB
M  V30 COUNTS 12 11 0 0 0
M  V30 BEGIN ATOM
M  V30 1 C -1.7578 -0.7812 0.0000 0
M  V30 2 C -0.5859 0.1953 0.0000 0
M  V30 3 C 1.7578 0.1953 0.0000 0
M  V30 4 N -0.7812 1.3672 0.0000 0
M  V30 5 N 0.3906 -0.5859 0.0000 0
M  V30 6 N 2.7344 -0.5859 0.0000 0
M  V30 7 O -3.1250 -0.3906 0.0000 0
M  V30 8 H -1.5625 -1.9531 0.0000 0
M  V30 9 H -1.5625 1.7578 0.0000 0
M  V30 10 H 0.5859 -1.7578 0.0000 0
M  V30 11 H 1.7578 1.1719 0.0000 0
M  V30 12 H 3.5156 0.1953 0.0000 0
M  V30 END ATOM
M  V30 BEGIN BOND
M  V30 1 2 1 2
M  V30 2 1 1 7
M  V30 3 1 1 8
M  V30 4 1 2 4
M  V30 5 2 2 5
M  V30 6 1 3 5
M  V30 7 1 3 6
M  V30 8 1 3 11
M  V30 9 1 4 9
M  V30 10 1 5 10
M  V30 11 1 6 12
M  V30 END BOND
M  V30 END CTAB
M  END
>  <ID>
11
$$$$
Structure_12
Score 	 8.0, smilesprid 	smiles	 smilestrue 	smiles	 similartanimoto 	0	 similardice 	0

   12   11  0  0  0  0            999 V3000
M  V30 BEGIN CTAB
M  V30 COUNTS 12 11 0 0 0
M  V30 BEGIN ATOM
M  V30 1 C -1.7578 -0.7812 0.0000 0
M  V30 2 C -0.5859 0.1953 0.0000 0
M  V30 3 C 1.7578 0.1953 0.0000 0
M  V30 4 N -0.7812 1.3672 0.0000 0
M  V30 5 N 0.3906 -0.5859 0.0000 0
M  V30 6 N 2.7344 -0.5859 0.0000 0
M  V30 7 O -3.1250 -0.3906 0.0000 0
M  V30 8 H -1.5625 -1.9531 0.0000 0
M  V30 9 H -1.5625 1.7578 0.0000 0
M  V30 10 H 0.5859 -1.7578 0.0000 0
M  V30 11 H 1.7578 1.1719 0.0000 0
M  V30 12 H 3.5156 0.1953 0.0000 0
M  V30 END ATOM
M  V30 BEGIN BOND
M  V30 1 3 1 2
M  V30 2 1 1 7
M  V30 3 1 1 8
M  V30 4 1 2 4
M  V30 5 2 2 5
M  V30 6 1 3 5
M  V30 7 1 3 6
M  V30 8 1 3 11
M  V30 9 1 4 9
M  V30 10 1 5 10
M  V30 11 1 6 12
M  V30 END BOND
M  V30 END CTAB
M  END
>  <ID>
12
$$$$
Structure_13
Score 	 6.0, smilesprid 	smiles	 smilestrue 	smiles	 similartanimoto 	0	 similardice 	0

   12   11  0  0  0  0            999 V3000
M  V30 BEGIN CTAB
M  V30 COUNTS 12 11 0 0 0
M  V30 BEGIN ATOM
M  V30 1 C -1.7578 -0.7812 0.0000 0
M  V30 2 C -0.5859 0.1953 0.0000 0
M  V30 3 C 1.7578 0.1953 0.0000 0
M  V30 4 N -0.7812 1.3672 0.0000 0
M  V30 5 N 0.3906 -0.5859 0.0000 0
M  V30 6 N 2.7344 -0.5859 0.0000 0
M  V30 7 O -3.1250 -0.3906 0.0000 0
M  V30 8 H -1.5625 -1.9531 0.0000 0
M  V30 9 H -1.5625 1.7578 0.0000 0
M  V30 10 H 0.5859 -1.7578 0.0000 0
M  V30 11 H 1.7578 1.1719 0.0000 0
M  V30 12 H 3.5156 0.1953 0.0000 0
M  V30 END ATOM
M  V30 BEGIN BOND
M  V30 1 1 1 2
M  V30 2 1 1 7
M  V30 3 1 1 8
M  V30 4 2 2 4
M  V30 5 2 2 5
M  V30 6 1 3 5
M  V30 7 1 3 6
M  V30 8 1 3 11
M  V30 9 1 4 9
M  V30 10 1 5 10
M  V30 11 1 6 12
M  V30 END BOND
M  V30 END CTAB
M  END
>  <ID>
13
$$$$
Structure_14
Score 	 6.0, smilesprid 	smiles	 smilestrue 	smiles	 similartanimoto 	0	 similardice 	0

   12   11  0  0  0  0            999 V3000
M  V30 BEGIN CTAB
M  V30 COUNTS 12 11 0 0 0
M  V30 BEGIN ATOM
M  V30 1 C -1.7578 -0.7812 0.0000 0
M  V30 2 C -0.5859 0.1953 0.0000 0
M  V30 3 C 1.7578 0.1953 0.0000 0
M  V30 4 N -0.7812 1.3672 0.0000 0
M  V30 5 N 0.3906 -0.5859 0.0000 0
M  V30 6 N 2.7344 -0.5859 0.0000 0
M  V30 7 O -3.1250 -0.3906 0.0000 0
M  V30 8 H -1.5625 -1.9531 0.0000 0
M  V30 9 H -1.5625 1.7578 0.0000 0
M  V30 10 H 0.5859 -1.7578 0.0000 0
M  V30 11 H 1.7578 1.1719 0.0000 0
M  V30 12 H 3.5156 0.1953 0.0000 0
M  V30 END ATOM
M  V30 BEGIN BOND
M  V30 1 2 1 2
M  V30 2 1 1 7
M  V30 3 1 1 8
M  V30 4 2 2 4
M  V30 5 2 2 5
M  V30 6 1 3 5
M  V30 7 1 3 6
M  V30 8 1 3 11
M  V30 9 1 4 9
M  V30 10 1 5 10
M  V30 11 1 6 12
M  V30 END BOND
M  V30 END CTAB
M  END
>  <ID>
14
$$$$
Structure_15
Score 	 8.0, smilesprid 	smiles	 smilestrue 	smiles	 similartanimoto 	0	 similardice 	0

   12   11  0  0  0  0            999 V3000
M  V30 BEGIN CTAB
M  V30 COUNTS 12 11 0 0 0
M  V30 BEGIN ATOM
M  V30 1 C -1.7578 -0.7812 0.0000 0
M  V30 2 C -0.5859 0.1953 0.0000 0
M  V30 3 C 1.7578 0.1953 0.0000 0
M  V30 4 N -0.7812 1.3672 0.0000 0
M  V30 5 N 0.3906 -0.5859 0.0000 0
M  V30 6 N 2.7344 -0.5859 0.0000 0
M  V30 7 O -3.1250 -0.3906 0.0000 0
M  V30 8 H -1.5625 -1.9531 0.0000 0
M  V30 9 H -1.5625 1.7578 0.0000 0
M  V30 10 H 0.5859 -1.7578 0.0000 0
M  V30 11 H 1.7578 1.1719 0.0000 0
M  V30 12 H 3.5156 0.1953 0.0000 0
M  V30 END ATOM
M  V30 BEGIN BOND
M  V30 1 3 1 2
M  V30 2 1 1 7
M  V30 3 1 1 8
M  V30 4 2 2 4
M  V30 5 2 2 5
M  V30 6 1 3 5
M  V30 7 1 3 6
M  V30 8 1 3 11
M  V30 9 1 4 9
M  V30 10 1 5 10
M  V30 11 1 6 12
M  V30 END BOND
M  V30 END CTAB
M  END
>  <ID>
15
$$$$
Structure_16
Score 	 8.0, smilesprid 	smiles	 smilestrue 	smiles	 similartanimoto 	0	 similardice 	0

   12   11  0  0  0  0            999 V3000
M  V30 BEGIN CTAB
M  V30 COUNTS 12 11 0 0 0
M  V30 BEGIN ATOM
M  V30 1 C -1.7578 -0.7812 0.0000 0
M  V30 2 C -0.5859 0.1953 0.0000 0
M  V30 3 C 1.7578 0.1953 0.0000 0
M  V30 4 N -0.7812 1.3672 0.0000 0
M  V30 5 N 0.3906 -0.5859 0.0000 0
M  V30 6 N 2.7344 -0.5859 0.0000 0
M  V30 7 O -3.1250 -0.3906 0.0000 0
M  V30 8 H -1.5625 -1.9531 0.0000 0
M  V30 9 H -1.5625 1.7578 0.0000 0
M  V30 10 H 0.5859 -1.7578 0.0000 0
M  V30 11 H 1.7578 1.1719 0.0000 0
M  V30 12 H 3.5156 0.1953 0.0000 0
M  V30 END ATOM
M  V30 BEGIN BOND
M  V30 1 1 1 2
M  V30 2 1 1 7
M  V30 3 1 1 8
M  V30 4 3 2 4
M  V30 5 2 2 5
M  V30 6 1 3 5
M  V30 7 1 3 6
M  V30 8 1 3 11
M  V30 9 1 4 9
M  V30 10 1 5 10
M  V30 11 1 6 12
M  V30 END BOND
M  V30 END CTAB
M  END
>  <ID>
16
$$$$
Structure_17
Score 	 8.0, smilesprid 	smiles	 smilestrue 	smiles	 similartanimoto 	0	 similardice 	0

   12   11  0  0  0  0            999 V3000
M  V30 BEGIN CTAB
M  V30 COUNTS 12 11 0 0 0
M  V30 BEGIN ATOM
M  V30 1 C -1.7578 -0.7812 0.0000 0
M  V30 2 C -0.5859 0.1953 0.0000 0
M  V30 3 C 1.7578 0.1953 0.0000 0
M  V30 4 N -0.7812 1.3672 0.0000 0
M  V30 5 N 0.3906 -0.5859 0.0000 0
M  V30 6 N 2.7344 -0.5859 0.0000 0
M  V30 7 O -3.1250 -0.3906 0.0000 0
M  V30 8 H -1.5625 -1.9531 0.0000 0
M  V30 9 H -1.5625 1.7578 0.0000 0
M  V30 10 H 0.5859 -1.7578 0.0000 0
M  V30 11 H 1.7578 1.1719 0.0000 0
M  V30 12 H 3.5156 0.1953 0.0000 0
M  V30 END ATOM
M  V30 BEGIN BOND
M  V30 1 2 1 2
M  V30 2 1 1 7
M  V30 3 1 1 8
M  V30 4 3 2 4
M  V30 5 2 2 5
M  V30 6 1 3 5
M  V30 7 1 3 6
M  V30 8 1 3 11
M  V30 9 1 4 9
M  V30 10 1 5 10
M  V30 11 1 6 12
M  V30 END BOND
M  V30 END CTAB
M  END
>  <ID>
17
$$$$
Structure_18
Score 	 10.0, smilesprid 	smiles	 smilestrue 	smiles	 similartanimoto 	0	 similardice 	0

   12   11  0  0  0  0            999 V3000
M  V30 BEGIN CTAB
M  V30 COUNTS 12 11 0 0 0
M  V30 BEGIN ATOM
M  V30 1 C -1.7578 -0.7812 0.0000 0
M  V30 2 C -0.5859 0.1953 0.0000 0
M  V30 3 C 1.7578 0.1953 0.0000 0
M  V30 4 N -0.7812 1.3672 0.0000 0
M  V30 5 N 0.3906 -0.5859 0.0000 0
M  V30 6 N 2.7344 -0.5859 0.0000 0
M  V30 7 O -3.1250 -0.3906 0.0000 0
M  V30 8 H -1.5625 -1.9531 0.0000 0
M  V30 9 H -1.5625 1.7578 0.0000 0
M  V30 10 H 0.5859 -1.7578 0.0000 0
M  V30 11 H 1.7578 1.1719 0.0000 0
M  V30 12 H 3.5156 0.1953 0.0000 0
M  V30 END ATOM
M  V30 BEGIN BOND
M  V30 1 3 1 2
M  V30 2 1 1 7
M  V30 3 1 1 8
M  V30 4 3 2 4
M  V30 5 2 2 5
M  V30 6 1 3 5
M  V30 7 1 3 6
M  V30 8 1 3 11
M  V30 9 1 4 9
M  V30 10 1 5 10
M  V30 11 1 6 12
M  V30 END BOND
M  V30 END CTAB
M  END
>  <ID>
18
$$$$
Structure_19
Score 	 8.0, smilesprid 	smiles	 smilestrue 	smiles	 similartanimoto 	0	 similardice 	0

   12   11  0  0  0  0            999 V3000
M  V30 BEGIN CTAB
M  V30 COUNTS 12 11 0 0 0
M  V30 BEGIN ATOM
M  V30 1 C -1.7578 -0.7812 0.0000 0
M  V30 2 C -0.5859 0.1953 0.0000 0
M  V30 3 C 1.7578 0.1953 0.0000 0
M  V30 4 N -0.7812 1.3672 0.0000 0
M  V30 5 N 0.3906 -0.5859 0.0000 0
M  V30 6 N 2.7344 -0.5859 0.0000 0
M  V30 7 O -3.1250 -0.3906 0.0000 0
M  V30 8 H -1.5625 -1.9531 0.0000 0
M  V30 9 H -1.5625 1.7578 0.0000 0
M  V30 10 H 0.5859 -1.7578 0.0000 0
M  V30 11 H 1.7578 1.1719 0.0000 0
M  V30 12 H 3.5156 0.1953 0.0000 0
M  V30 END ATOM
M  V30 BEGIN BOND
M  V30 1 1 1 2
M  V30 2 1 1 7
M  V30 3 1 1 8
M  V30 4 1 2 4
M  V30 5 3 2 5
M  V30 6 1 3 5
M  V30 7 1 3 6
M  V30 8 1 3 11
M  V30 9 1 4 9
M  V30 10 1 5 10
M  V30 11 1 6 12
M  V30 END BOND
M  V30 END CTAB
M  END
>  <ID>
19
$$$$
Structure_20
Score 	 8.0, smilesprid 	smiles	 smilestrue 	smiles	 similartanimoto 	0	 similardice 	0

   12   11  0  0  0  0            999 V3000
M  V30 BEGIN CTAB
M  V30 COUNTS 12 11 0 0 0
M  V30 BEGIN ATOM
M  V30 1 C -1.7578 -0.7812 0.0000 0
M  V30 2 C -0.5859 0.1953 0.0000 0
M  V30 3 C 1.7578 0.1953 0.0000 0
M  V30 4 N -0.7812 1.3672 0.0000 0
M  V30 5 N 0.3906 -0.5859 0.0000 0
M  V30 6 N 2.7344 -0.5859 0.0000 0
M  V30 7 O -3.1250 -0.3906 0.0000 0
M  V30 8 H -1.5625 -1.9531 0.0000 0
M  V30 9 H -1.5625 1.7578 0.0000 0
M  V30 10 H 0.5859 -1.7578 0.0000 0
M  V30 11 H 1.7578 1.1719 0.0000 0
M  V30 12 H 3.5156 0.1953 0.0000 0
M  V30 END ATOM
M  V30 BEGIN BOND
M  V30 1 2 1 2
M  V30 2 1 1 7
M  V30 3 1 1 8
M  V30 4 1 2 4
M  V30 5 3 2 5
M  V30 6 1 3 5
M  V30 7 1 3 6
M  V30 8 1 3 11
M  V30 9 1 4 9
M  V30 10 1 5 10
M  V30 11 1 6 12
M  V30 END BOND
M  V30 END CTAB
M  END
>  <ID>
20
$$$$
Structure_21
Score 	 10.0, smilesprid 	smiles	 smilestrue 	smiles	 similartanimoto 	0	 similardice 	0

   12   11  0  0  0  0            999 V3000
M  V30 BEGIN CTAB
M  V30 COUNTS 12 11 0 0 0
M  V30 BEGIN ATOM
M  V30 1 C -1.7578 -0.7812 0.0000 0
M  V30 2 C -0.5859 0.1953 0.0000 0
M  V30 3 C 1.7578 0.1953 0.0000 0
M  V30 4 N -0.7812 1.3672 0.0000 0
M  V30 5 N 0.3906 -0.5859 0.0000 0
M  V30 6 N 2.7344 -0.5859 0.0000 0
M  V30 7 O -3.1250 -0.3906 0.0000 0
M  V30 8 H -1.5625 -1.9531 0.0000 0
M  V30 9 H -1.5625 1.7578 0.0000 0
M  V30 10 H 0.5859 -1.7578 0.0000 0
M  V30 11 H 1.7578 1.1719 0.0000 0
M  V30 12 H 3.5156 0.1953 0.0000 0
M  V30 END ATOM
M  V30 BEGIN BOND
M  V30 1 3 1 2
M  V30 2 1 1 7
M  V30 3 1 1 8
M  V30 4 1 2 4
M  V30 5 3 2 5
M  V30 6 1 3 5
M  V30 7 1 3 6
M  V30 8 1 3 11
M  V30 9 1 4 9
M  V30 10 1 5 10
M  V30 11 1 6 12
M  V30 END BOND
M  V30 END CTAB
M  END
>  <ID>
21
$$$$
Structure_22
Score 	 8.0, smilesprid 	smiles	 smilestrue 	smiles	 similartanimoto 	0	 similardice 	0

   12   11  0  0  0  0            999 V3000
M  V30 BEGIN CTAB
M  V30 COUNTS 12 11 0 0 0
M  V30 BEGIN ATOM
M  V30 1 C -1.7578 -0.7812 0.0000 0
M  V30 2 C -0.5859 0.1953 0.0000 0
M  V30 3 C 1.7578 0.1953 0.0000 0
M  V30 4 N -0.7812 1.3672 0.0000 0
M  V30 5 N 0.3906 -0.5859 0.0000 0
M  V30 6 N 2.7344 -0.5859 0.0000 0
M  V30 7 O -3.1250 -0.3906 0.0000 0
M  V30 8 H -1.5625 -1.9531 0.0000 0
M  V30 9 H -1.5625 1.7578 0.0000 0
M  V30 10 H 0.5859 -1.7578 0.0000 0
M  V30 11 H 1.7578 1.1719 0.0000 0
M  V30 12 H 3.5156 0.1953 0.0000 0
M  V30 END ATOM
M  V30 BEGIN BOND
M  V30 1 1 1 2
M  V30 2 1 1 7
M  V30 3 1 1 8
M  V30 4 2 2 4
M  V30 5 3 2 5
M  V30 6 1 3 5
M  V30 7 1 3 6
M  V30 8 1 3 11
M  V30 9 1 4 9
M  V30 10 1 5 10
M  V30 11 1 6 12
M  V30 END BOND
M  V30 END CTAB
M  END
>  <ID>
22
$$$$
Structure_23
Score 	 8.0, smilesprid 	smiles	 smilestrue 	smiles	 similartanimoto 	0	 similardice 	0

   12   11  0  0  0  0            999 V3000
M  V30 BEGIN CTAB
M  V30 COUNTS 12 11 0 0 0
M  V30 BEGIN ATOM
M  V30 1 C -1.7578 -0.7812 0.0000 0
M  V30 2 C -0.5859 0.1953 0.0000 0
M  V30 3 C 1.7578 0.1953 0.0000 0
M  V30 4 N -0.7812 1.3672 0.0000 0
M  V30 5 N 0.3906 -0.5859 0.0000 0
M  V30 6 N 2.7344 -0.5859 0.0000 0
M  V30 7 O -3.1250 -0.3906 0.0000 0
M  V30 8 H -1.5625 -1.9531 0.0000 0
M  V30 9 H -1.5625 1.7578 0.0000 0
M  V30 10 H 0.5859 -1.7578 0.0000 0
M  V30 11 H 1.7578 1.1719 0.0000 0
M  V30 12 H 3.5156 0.1953 0.0000 0
M  V30 END ATOM
M  V30 BEGIN BOND
M  V30 1 2 1 2
M  V30 2 1 1 7
M  V30 3 1 1 8
M  V30 4 2 2 4
M  V30 5 3 2 5
M  V30 6 1 3 5
M  V30 7 1 3 6
M  V30 8 1 3 11
M  V30 9 1 4 9
M  V30 10 1 5 10
M  V30 11 1 6 12
M  V30 END BOND
M  V30 END CTAB
M  END
>  <ID>
23
$$$$
Structure_24
Score 	 10.0, smilesprid 	smiles	 smilestrue 	smiles	 similartanimoto 	0	 similardice 	0

   12   11  0  0  0  0            999 V3000
M  V30 BEGIN CTAB
M  V30 COUNTS 12 11 0 0 0
M  V30 BEGIN ATOM
M  V30 1 C -1.7578 -0.7812 0.0000 0
M  V30 2 C -0.5859 0.1953 0.0000 0
M  V30 3 C 1.7578 0.1953 0.0000 0
M  V30 4 N -0.7812 1.3672 0.0000 0
M  V30 5 N 0.3906 -0.5859 0.0000 0
M  V30 6 N 2.7344 -0.5859 0.0000 0
M  V30 7 O -3.1250 -0.3906 0.0000 0
M  V30 8 H -1.5625 -1.9531 0.0000 0
M  V30 9 H -1.5625 1.7578 0.0000 0
M  V30 10 H 0.5859 -1.7578 0.0000 0
M  V30 11 H 1.7578 1.1719 0.0000 0
M  V30 12 H 3.5156 0.1953 0.0000 0
M  V30 END ATOM
M  V30 BEGIN BOND
M  V30 1 3 1 2
M  V30 2 1 1 7
M  V30 3 1 1 8
M  V30 4 2 2 4
M  V30 5 3 2 5
M  V30 6 1 3 5
M  V30 7 1 3 6
M  V30 8 1 3 11
M  V30 9 1 4 9
M  V30 10 1 5 10
M  V30 11 1 6 12
M  V30 END BOND
M  V30 END CTAB
M  END
>  <ID>
24
$$$$
Structure_25
Score 	 10.0, smilesprid 	smiles	 smilestrue 	smiles	 similartanimoto 	0	 similardice 	0

   12   11  0  0  0  0            999 V3000
M  V30 BEGIN CTAB
M  V30 COUNTS 12 11 0 0 0
M  V30 BEGIN ATOM
M  V30 1 C -1.7578 -0.7812 0.0000 0
M  V30 2 C -0.5859 0.1953 0.0000 0
M  V30 3 C 1.7578 0.1953 0.0000 0
M  V30 4 N -0.7812 1.3672 0.0000 0
M  V30 5 N 0.3906 -0.5859 0.0000 0
M  V30 6 N 2.7344 -0.5859 0.0000 0
M  V30 7 O -3.1250 -0.3906 0.0000 0
M  V30 8 H -1.5625 -1.9531 0.0000 0
M  V30 9 H -1.5625 1.7578 0.0000 0
M  V30 10 H 0.5859 -1.7578 0.0000 0
M  V30 11 H 1.7578 1.1719 0.0000 0
M  V30 12 H 3.5156 0.1953 0.0000 0
M  V30 END ATOM
M  V30 BEGIN BOND
M  V30 1 1 1 2
M  V30 2 1 1 7
M  V30 3 1 1 8
M  V30 4 3 2 4
M  V30 5 3 2 5
M  V30 6 1 3 5
M  V30 7 1 3 6
M  V30 8 1 3 11
M  V30 9 1 4 9
M  V30 10 1 5 10
M  V30 11 1 6 12
M  V30 END BOND
M  V30 END CTAB
M  END
>  <ID>
25
$$$$
Structure_26
Score 	 10.0, smilesprid 	smiles	 smilestrue 	smiles	 similartanimoto 	0	 similardice 	0

   12   11  0  0  0  0            999 V3000
M  V30 BEGIN CTAB
M  V30 COUNTS 12 11 0 0 0
M  V30 BEGIN ATOM
M  V30 1 C -1.7578 -0.7812 0.0000 0
M  V30 2 C -0.5859 0.1953 0.0000 0
M  V30 3 C 1.7578 0.1953 0.0000 0
M  V30 4 N -0.7812 1.3672 0.0000 0
M  V30 5 N 0.3906 -0.5859 0.0000 0
M  V30 6 N 2.7344 -0.5859 0.0000 0
M  V30 7 O -3.1250 -0.3906 0.0000 0
M  V30 8 H -1.5625 -1.9531 0.0000 0
M  V30 9 H -1.5625 1.7578 0.0000 0
M  V30 10 H 0.5859 -1.7578 0.0000 0
M  V30 11 H 1.7578 1.1719 0.0000 0
M  V30 12 H 3.5156 0.1953 0.0000 0
M  V30 END ATOM
M  V30 BEGIN BOND
M  V30 1 2 1 2
M  V30 2 1 1 7
M  V30 3 1 1 8
M  V30 4 3 2 4
M  V30 5 3 2 5
M  V30 6 1 3 5
M  V30 7 1 3 6
M  V30 8 1 3 11
M  V30 9 1 4 9
M  V30 10 1 5 10
M  V30 11 1 6 12
M  V30 END BOND
M  V30 END CTAB
M  END
>  <ID>
26
$$$$
Structure_27
Score 	 12.0, smilesprid 	smiles	 smilestrue 	smiles	 similartanimoto 	0	 similardice 	0

   12   11  0  0  0  0            999 V3000
M  V30 BEGIN CTAB
M  V30 COUNTS 12 11 0 0 0
M  V30 BEGIN ATOM
M  V30 1 C -1.7578 -0.7812 0.0000 0
M  V30 2 C -0.5859 0.1953 0.0000 0
M  V30 3 C 1.7578 0.1953 0.0000 0
M  V30 4 N -0.7812 1.3672 0.0000 0
M  V30 5 N 0.3906 -0.5859 0.0000 0
M  V30 6 N 2.7344 -0.5859 0.0000 0
M  V30 7 O -3.1250 -0.3906 0.0000 0
M  V30 8 H -1.5625 -1.9531 0.0000 0
M  V30 9 H -1.5625 1.7578 0.0000 0
M  V30 10 H 0.5859 -1.7578 0.0000 0
M  V30 11 H 1.7578 1.1719 0.0000 0
M  V30 12 H 3.5156 0.1953 0.0000 0
M  V30 END ATOM
M  V30 BEGIN BOND
M  V30 1 3 1 2
M  V30 2 1 1 7
M  V30 3 1 1 8
M  V30 4 3 2 4
M  V30 5 3 2 5
M  V30 6 1 3 5
M  V30 7 1 3 6
M  V30 8 1 3 11
M  V30 9 1 4 9
M  V30 10 1 5 10
M  V30 11 1 6 12
M  V30 END BOND
M  V30 END CTAB
M  END
>  <ID>
27
$$$$
Structure_28
Score 	 6.0, smilesprid 	smiles	 smilestrue 	smiles	 similartanimoto 	0	 similardice 	0

   12   11  0  0  0  0            999 V3000
M  V30 BEGIN CTAB
M  V30 COUNTS 12 11 0 0 0
M  V30 BEGIN ATOM
M  V30 1 C -1.7578 -0.7812 0.0000 0
M  V30 2 C -0.5859 0.1953 0.0000 0
M  V30 3 C 1.7578 0.1953 0.0000 0
M  V30 4 N -0.7812 1.3672 0.0000 0
M  V30 5 N 0.3906 -0.5859 0.0000 0
M  V30 6 N 2.7344 -0.5859 0.0000 0
M  V30 7 O -3.1250 -0.3906 0.0000 0
M  V30 8 H -1.5625 -1.9531 0.0000 0
M  V30 9 H -1.5625 1.7578 0.0000 0
M  V30 10 H 0.5859 -1.7578 0.0000 0
M  V30 11 H 1.7578 1.1719 0.0000 0
M  V30 12 H 3.5156 0.1953 0.0000 0
M  V30 END ATOM
M  V30 BEGIN BOND
M  V30 1 1 1 2
M  V30 2 1 1 7
M  V30 3 1 1 8
M  V30 4 1 2 4
M  V30 5 1 2 5
M  V30 6 2 3 5
M  V30 7 1 3 6
M  V30 8 1 3 11
M  V30 9 1 4 9
M  V30 10 1 5 10
M  V30 11 1 6 12
M  V30 END BOND
M  V30 END CTAB
M  END
>  <ID>
28
$$$$
Structure_29
Score 	 4.0, smilesprid 	smiles	 smilestrue 	smiles	 similartanimoto 	0	 similardice 	0

   12   11  0  0  0  0            999 V3000
M  V30 BEGIN CTAB
M  V30 COUNTS 12 11 0 0 0
M  V30 BEGIN ATOM
M  V30 1 C -1.7578 -0.7812 0.0000 0
M  V30 2 C -0.5859 0.1953 0.0000 0
M  V30 3 C 1.7578 0.1953 0.0000 0
M  V30 4 N -0.7812 1.3672 0.0000 0
M  V30 5 N 0.3906 -0.5859 0.0000 0
M  V30 6 N 2.7344 -0.5859 0.0000 0
M  V30 7 O -3.1250 -0.3906 0.0000 0
M  V30 8 H -1.5625 -1.9531 0.0000 0
M  V30 9 H -1.5625 1.7578 0.0000 0
M  V30 10 H 0.5859 -1.7578 0.0000 0
M  V30 11 H 1.7578 1.1719 0.0000 0
M  V30 12 H 3.5156 0.1953 0.0000 0
M  V30 END ATOM
M  V30 BEGIN BOND
M  V30 1 2 1 2
M  V30 2 1 1 7
M  V30 3 1 1 8
M  V30 4 1 2 4
M  V30 5 1 2 5
M  V30 6 2 3 5
M  V30 7 1 3 6
M  V30 8 1 3 11
M  V30 9 1 4 9
M  V30 10 1 5 10
M  V30 11 1 6 12
M  V30 END BOND
M  V30 END CTAB
M  END
>  <ID>
29
$$$$
Structure_30
Score 	 6.0, smilesprid 	smiles	 smilestrue 	smiles	 similartanimoto 	0	 similardice 	0

   12   11  0  0  0  0            999 V3000
M  V30 BEGIN CTAB
M  V30 COUNTS 12 11 0 0 0
M  V30 BEGIN ATOM
M  V30 1 C -1.7578 -0.7812 0.0000 0
M  V30 2 C -0.5859 0.1953 0.0000 0
M  V30 3 C 1.7578 0.1953 0.0000 0
M  V30 4 N -0.7812 1.3672 0.0000 0
M  V30 5 N 0.3906 -0.5859 0.0000 0
M  V30 6 N 2.7344 -0.5859 0.0000 0
M  V30 7 O -3.1250 -0.3906 0.0000 0
M  V30 8 H -1.5625 -1.9531 0.0000 0
M  V30 9 H -1.5625 1.7578 0.0000 0
M  V30 10 H 0.5859 -1.7578 0.0000 0
M  V30 11 H 1.7578 1.1719 0.0000 0
M  V30 12 H 3.5156 0.1953 0.0000 0
M  V30 END ATOM
M  V30 BEGIN BOND
M  V30 1 3 1 2
M  V30 2 1 1 7
M  V30 3 1 1 8
M  V30 4 1 2 4
M  V30 5 1 2 5
M  V30 6 2 3 5
M  V30 7 1 3 6
M  V30 8 1 3 11
M  V30 9 1 4 9
M  V30 10 1 5 10
M  V30 11 1 6 12
M  V30 END BOND
M  V30 END CTAB
M  END
>  <ID>
30
$$$$
Structure_31
Score 	 4.0, smilesprid 	smiles	 smilestrue 	smiles	 similartanimoto 	0	 similardice 	0

   12   11  0  0  0  0            999 V3000
M  V30 BEGIN CTAB
M  V30 COUNTS 12 11 0 0 0
M  V30 BEGIN ATOM
M  V30 1 C -1.7578 -0.7812 0.0000 0
M  V30 2 C -0.5859 0.1953 0.0000 0
M  V30 3 C 1.7578 0.1953 0.0000 0
M  V30 4 N -0.7812 1.3672 0.0000 0
M  V30 5 N 0.3906 -0.5859 0.0000 0
M  V30 6 N 2.7344 -0.5859 0.0000 0
M  V30 7 O -3.1250 -0.3906 0.0000 0
M  V30 8 H -1.5625 -1.9531 0.0000 0
M  V30 9 H -1.5625 1.7578 0.0000 0
M  V30 10 H 0.5859 -1.7578 0.0000 0
M  V30 11 H 1.7578 1.1719 0.0000 0
M  V30 12 H 3.5156 0.1953 0.0000 0
M  V30 END ATOM
M  V30 BEGIN BOND
M  V30 1 1 1 2
M  V30 2 1 1 7
M  V30 3 1 1 8
M  V30 4 2 2 4
M  V30 5 1 2 5
M  V30 6 2 3 5
M  V30 7 1 3 6
M  V30 8 1 3 11
M  V30 9 1 4 9
M  V30 10 1 5 10
M  V30 11 1 6 12
M  V30 END BOND
M  V30 END CTAB
M  END
>  <ID>
31
$$$$
Structure_32
Score 	 4.0, smilesprid 	smiles	 smilestrue 	smiles	 similartanimoto 	0	 similardice 	0

   12   11  0  0  0  0            999 V3000
M  V30 BEGIN CTAB
M  V30 COUNTS 12 11 0 0 0
M  V30 BEGIN ATOM
M  V30 1 C -1.7578 -0.7812 0.0000 0
M  V30 2 C -0.5859 0.1953 0.0000 0
M  V30 3 C 1.7578 0.1953 0.0000 0
M  V30 4 N -0.7812 1.3672 0.0000 0
M  V30 5 N 0.3906 -0.5859 0.0000 0
M  V30 6 N 2.7344 -0.5859 0.0000 0
M  V30 7 O -3.1250 -0.3906 0.0000 0
M  V30 8 H -1.5625 -1.9531 0.0000 0
M  V30 9 H -1.5625 1.7578 0.0000 0
M  V30 10 H 0.5859 -1.7578 0.0000 0
M  V30 11 H 1.7578 1.1719 0.0000 0
M  V30 12 H 3.5156 0.1953 0.0000 0
M  V30 END ATOM
M  V30 BEGIN BOND
M  V30 1 2 1 2
M  V30 2 1 1 7
M  V30 3 1 1 8
M  V30 4 2 2 4
M  V30 5 1 2 5
M  V30 6 2 3 5
M  V30 7 1 3 6
M  V30 8 1 3 11
M  V30 9 1 4 9
M  V30 10 1 5 10
M  V30 11 1 6 12
M  V30 END BOND
M  V30 END CTAB
M  END
>  <ID>
32
$$$$
Structure_33
Score 	 6.0, smilesprid 	smiles	 smilestrue 	smiles	 similartanimoto 	0	 similardice 	0

   12   11  0  0  0  0            999 V3000
M  V30 BEGIN CTAB
M  V30 COUNTS 12 11 0 0 0
M  V30 BEGIN ATOM
M  V30 1 C -1.7578 -0.7812 0.0000 0
M  V30 2 C -0.5859 0.1953 0.0000 0
M  V30 3 C 1.7578 0.1953 0.0000 0
M  V30 4 N -0.7812 1.3672 0.0000 0
M  V30 5 N 0.3906 -0.5859 0.0000 0
M  V30 6 N 2.7344 -0.5859 0.0000 0
M  V30 7 O -3.1250 -0.3906 0.0000 0
M  V30 8 H -1.5625 -1.9531 0.0000 0
M  V30 9 H -1.5625 1.7578 0.0000 0
M  V30 10 H 0.5859 -1.7578 0.0000 0
M  V30 11 H 1.7578 1.1719 0.0000 0
M  V30 12 H 3.5156 0.1953 0.0000 0
M  V30 END ATOM
M  V30 BEGIN BOND
M  V30 1 3 1 2
M  V30 2 1 1 7
M  V30 3 1 1 8
M  V30 4 2 2 4
M  V30 5 1 2 5
M  V30 6 2 3 5
M  V30 7 1 3 6
M  V30 8 1 3 11
M  V30 9 1 4 9
M  V30 10 1 5 10
M  V30 11 1 6 12
M  V30 END BOND
M  V30 END CTAB
M  END
>  <ID>
33
$$$$
Structure_34
Score 	 6.0, smilesprid 	smiles	 smilestrue 	smiles	 similartanimoto 	0	 similardice 	0

   12   11  0  0  0  0            999 V3000
M  V30 BEGIN CTAB
M  V30 COUNTS 12 11 0 0 0
M  V30 BEGIN ATOM
M  V30 1 C -1.7578 -0.7812 0.0000 0
M  V30 2 C -0.5859 0.1953 0.0000 0
M  V30 3 C 1.7578 0.1953 0.0000 0
M  V30 4 N -0.7812 1.3672 0.0000 0
M  V30 5 N 0.3906 -0.5859 0.0000 0
M  V30 6 N 2.7344 -0.5859 0.0000 0
M  V30 7 O -3.1250 -0.3906 0.0000 0
M  V30 8 H -1.5625 -1.9531 0.0000 0
M  V30 9 H -1.5625 1.7578 0.0000 0
M  V30 10 H 0.5859 -1.7578 0.0000 0
M  V30 11 H 1.7578 1.1719 0.0000 0
M  V30 12 H 3.5156 0.1953 0.0000 0
M  V30 END ATOM
M  V30 BEGIN BOND
M  V30 1 1 1 2
M  V30 2 1 1 7
M  V30 3 1 1 8
M  V30 4 3 2 4
M  V30 5 1 2 5
M  V30 6 2 3 5
M  V30 7 1 3 6
M  V30 8 1 3 11
M  V30 9 1 4 9
M  V30 10 1 5 10
M  V30 11 1 6 12
M  V30 END BOND
M  V30 END CTAB
M  END
>  <ID>
34
$$$$
Structure_35
Score 	 6.0, smilesprid 	smiles	 smilestrue 	smiles	 similartanimoto 	0	 similardice 	0

   12   11  0  0  0  0            999 V3000
M  V30 BEGIN CTAB
M  V30 COUNTS 12 11 0 0 0
M  V30 BEGIN ATOM
M  V30 1 C -1.7578 -0.7812 0.0000 0
M  V30 2 C -0.5859 0.1953 0.0000 0
M  V30 3 C 1.7578 0.1953 0.0000 0
M  V30 4 N -0.7812 1.3672 0.0000 0
M  V30 5 N 0.3906 -0.5859 0.0000 0
M  V30 6 N 2.7344 -0.5859 0.0000 0
M  V30 7 O -3.1250 -0.3906 0.0000 0
M  V30 8 H -1.5625 -1.9531 0.0000 0
M  V30 9 H -1.5625 1.7578 0.0000 0
M  V30 10 H 0.5859 -1.7578 0.0000 0
M  V30 11 H 1.7578 1.1719 0.0000 0
M  V30 12 H 3.5156 0.1953 0.0000 0
M  V30 END ATOM
M  V30 BEGIN BOND
M  V30 1 2 1 2
M  V30 2 1 1 7
M  V30 3 1 1 8
M  V30 4 3 2 4
M  V30 5 1 2 5
M  V30 6 2 3 5
M  V30 7 1 3 6
M  V30 8 1 3 11
M  V30 9 1 4 9
M  V30 10 1 5 10
M  V30 11 1 6 12
M  V30 END BOND
M  V30 END CTAB
M  END
>  <ID>
35
$$$$
Structure_36
Score 	 8.0, smilesprid 	smiles	 smilestrue 	smiles	 similartanimoto 	0	 similardice 	0

   12   11  0  0  0  0            999 V3000
M  V30 BEGIN CTAB
M  V30 COUNTS 12 11 0 0 0
M  V30 BEGIN ATOM
M  V30 1 C -1.7578 -0.7812 0.0000 0
M  V30 2 C -0.5859 0.1953 0.0000 0
M  V30 3 C 1.7578 0.1953 0.0000 0
M  V30 4 N -0.7812 1.3672 0.0000 0
M  V30 5 N 0.3906 -0.5859 0.0000 0
M  V30 6 N 2.7344 -0.5859 0.0000 0
M  V30 7 O -3.1250 -0.3906 0.0000 0
M  V30 8 H -1.5625 -1.9531 0.0000 0
M  V30 9 H -1.5625 1.7578 0.0000 0
M  V30 10 H 0.5859 -1.7578 0.0000 0
M  V30 11 H 1.7578 1.1719 0.0000 0
M  V30 12 H 3.5156 0.1953 0.0000 0
M  V30 END ATOM
M  V30 BEGIN BOND
M  V30 1 3 1 2
M  V30 2 1 1 7
M  V30 3 1 1 8
M  V30 4 3 2 4
M  V30 5 1 2 5
M  V30 6 2 3 5
M  V30 7 1 3 6
M  V30 8 1 3 11
M  V30 9 1 4 9
M  V30 10 1 5 10
M  V30 11 1 6 12
M  V30 END BOND
M  V30 END CTAB
M  END
>  <ID>
36
$$$$
Structure_37
Score 	 6.0, smilesprid 	smiles	 smilestrue 	smiles	 similartanimoto 	0	 similardice 	0

   12   11  0  0  0  0            999 V3000
M  V30 BEGIN CTAB
M  V30 COUNTS 12 11 0 0 0
M  V30 BEGIN ATOM
M  V30 1 C -1.7578 -0.7812 0.0000 0
M  V30 2 C -0.5859 0.1953 0.0000 0
M  V30 3 C 1.7578 0.1953 0.0000 0
M  V30 4 N -0.7812 1.3672 0.0000 0
M  V30 5 N 0.3906 -0.5859 0.0000 0
M  V30 6 N 2.7344 -0.5859 0.0000 0
M  V30 7 O -3.1250 -0.3906 0.0000 0
M  V30 8 H -1.5625 -1.9531 0.0000 0
M  V30 9 H -1.5625 1.7578 0.0000 0
M  V30 10 H 0.5859 -1.7578 0.0000 0
M  V30 11 H 1.7578 1.1719 0.0000 0
M  V30 12 H 3.5156 0.1953 0.0000 0
M  V30 END ATOM
M  V30 BEGIN BOND
M  V30 1 1 1 2
M  V30 2 1 1 7
M  V30 3 1 1 8
M  V30 4 1 2 4
M  V30 5 2 2 5
M  V30 6 2 3 5
M  V30 7 1 3 6
M  V30 8 1 3 11
M  V30 9 1 4 9
M  V30 10 1 5 10
M  V30 11 1 6 12
M  V30 END BOND
M  V30 END CTAB
M  END
>  <ID>
37
$$$$
Structure_38
Score 	 6.0, smilesprid 	smiles	 smilestrue 	smiles	 similartanimoto 	0	 similardice 	0

   12   11  0  0  0  0            999 V3000
M  V30 BEGIN CTAB
M  V30 COUNTS 12 11 0 0 0
M  V30 BEGIN ATOM
M  V30 1 C -1.7578 -0.7812 0.0000 0
M  V30 2 C -0.5859 0.1953 0.0000 0
M  V30 3 C 1.7578 0.1953 0.0000 0
M  V30 4 N -0.7812 1.3672 0.0000 0
M  V30 5 N 0.3906 -0.5859 0.0000 0
M  V30 6 N 2.7344 -0.5859 0.0000 0
M  V30 7 O -3.1250 -0.3906 0.0000 0
M  V30 8 H -1.5625 -1.9531 0.0000 0
M  V30 9 H -1.5625 1.7578 0.0000 0
M  V30 10 H 0.5859 -1.7578 0.0000 0
M  V30 11 H 1.7578 1.1719 0.0000 0
M  V30 12 H 3.5156 0.1953 0.0000 0
M  V30 END ATOM
M  V30 BEGIN BOND
M  V30 1 2 1 2
M  V30 2 1 1 7
M  V30 3 1 1 8
M  V30 4 1 2 4
M  V30 5 2 2 5
M  V30 6 2 3 5
M  V30 7 1 3 6
M  V30 8 1 3 11
M  V30 9 1 4 9
M  V30 10 1 5 10
M  V30 11 1 6 12
M  V30 END BOND
M  V30 END CTAB
M  END
>  <ID>
38
$$$$
Structure_39
Score 	 8.0, smilesprid 	smiles	 smilestrue 	smiles	 similartanimoto 	0	 similardice 	0

   12   11  0  0  0  0            999 V3000
M  V30 BEGIN CTAB
M  V30 COUNTS 12 11 0 0 0
M  V30 BEGIN ATOM
M  V30 1 C -1.7578 -0.7812 0.0000 0
M  V30 2 C -0.5859 0.1953 0.0000 0
M  V30 3 C 1.7578 0.1953 0.0000 0
M  V30 4 N -0.7812 1.3672 0.0000 0
M  V30 5 N 0.3906 -0.5859 0.0000 0
M  V30 6 N 2.7344 -0.5859 0.0000 0
M  V30 7 O -3.1250 -0.3906 0.0000 0
M  V30 8 H -1.5625 -1.9531 0.0000 0
M  V30 9 H -1.5625 1.7578 0.0000 0
M  V30 10 H 0.5859 -1.7578 0.0000 0
M  V30 11 H 1.7578 1.1719 0.0000 0
M  V30 12 H 3.5156 0.1953 0.0000 0
M  V30 END ATOM
M  V30 BEGIN BOND
M  V30 1 3 1 2
M  V30 2 1 1 7
M  V30 3 1 1 8
M  V30 4 1 2 4
M  V30 5 2 2 5
M  V30 6 2 3 5
M  V30 7 1 3 6
M  V30 8 1 3 11
M  V30 9 1 4 9
M  V30 10 1 5 10
M  V30 11 1 6 12
M  V30 END BOND
M  V30 END CTAB
M  END
>  <ID>
39
$$$$
Structure_40
Score 	 6.0, smilesprid 	smiles	 smilestrue 	smiles	 similartanimoto 	0	 similardice 	0

   12   11  0  0  0  0            999 V3000
M  V30 BEGIN CTAB
M  V30 COUNTS 12 11 0 0 0
M  V30 BEGIN ATOM
M  V30 1 C -1.7578 -0.7812 0.0000 0
M  V30 2 C -0.5859 0.1953 0.0000 0
M  V30 3 C 1.7578 0.1953 0.0000 0
M  V30 4 N -0.7812 1.3672 0.0000 0
M  V30 5 N 0.3906 -0.5859 0.0000 0
M  V30 6 N 2.7344 -0.5859 0.0000 0
M  V30 7 O -3.1250 -0.3906 0.0000 0
M  V30 8 H -1.5625 -1.9531 0.0000 0
M  V30 9 H -1.5625 1.7578 0.0000 0
M  V30 10 H 0.5859 -1.7578 0.0000 0
M  V30 11 H 1.7578 1.1719 0.0000 0
M  V30 12 H 3.5156 0.1953 0.0000 0
M  V30 END ATOM
M  V30 BEGIN BOND
M  V30 1 1 1 2
M  V30 2 1 1 7
M  V30 3 1 1 8
M  V30 4 2 2 4
M  V30 5 2 2 5
M  V30 6 2 3 5
M  V30 7 1 3 6
M  V30 8 1 3 11
M  V30 9 1 4 9
M  V30 10 1 5 10
M  V30 11 1 6 12
M  V30 END BOND
M  V30 END CTAB
M  END
>  <ID>
40
$$$$
Structure_41
Score 	 6.0, smilesprid 	smiles	 smilestrue 	smiles	 similartanimoto 	0	 similardice 	0

   12   11  0  0  0  0            999 V3000
M  V30 BEGIN CTAB
M  V30 COUNTS 12 11 0 0 0
M  V30 BEGIN ATOM
M  V30 1 C -1.7578 -0.7812 0.0000 0
M  V30 2 C -0.5859 0.1953 0.0000 0
M  V30 3 C 1.7578 0.1953 0.0000 0
M  V30 4 N -0.7812 1.3672 0.0000 0
M  V30 5 N 0.3906 -0.5859 0.0000 0
M  V30 6 N 2.7344 -0.5859 0.0000 0
M  V30 7 O -3.1250 -0.3906 0.0000 0
M  V30 8 H -1.5625 -1.9531 0.0000 0
M  V30 9 H -1.5625 1.7578 0.0000 0
M  V30 10 H 0.5859 -1.7578 0.0000 0
M  V30 11 H 1.7578 1.1719 0.0000 0
M  V30 12 H 3.5156 0.1953 0.0000 0
M  V30 END ATOM
M  V30 BEGIN BOND
M  V30 1 2 1 2
M  V30 2 1 1 7
M  V30 3 1 1 8
M  V30 4 2 2 4
M  V30 5 2 2 5
M  V30 6 2 3 5
M  V30 7 1 3 6
M  V30 8 1 3 11
M  V30 9 1 4 9
M  V30 10 1 5 10
M  V30 11 1 6 12
M  V30 END BOND
M  V30 END CTAB
M  END
>  <ID>
41
$$$$
Structure_42
Score 	 8.0, smilesprid 	smiles	 smilestrue 	smiles	 similartanimoto 	0	 similardice 	0

   12   11  0  0  0  0            999 V3000
M  V30 BEGIN CTAB
M  V30 COUNTS 12 11 0 0 0
M  V30 BEGIN ATOM
M  V30 1 C -1.7578 -0.7812 0.0000 0
M  V30 2 C -0.5859 0.1953 0.0000 0
M  V30 3 C 1.7578 0.1953 0.0000 0
M  V30 4 N -0.7812 1.3672 0.0000 0
M  V30 5 N 0.3906 -0.5859 0.0000 0
M  V30 6 N 2.7344 -0.5859 0.0000 0
M  V30 7 O -3.1250 -0.3906 0.0000 0
M  V30 8 H -1.5625 -1.9531 0.0000 0
M  V30 9 H -1.5625 1.7578 0.0000 0
M  V30 10 H 0.5859 -1.7578 0.0000 0
M  V30 11 H 1.7578 1.1719 0.0000 0
M  V30 12 H 3.5156 0.1953 0.0000 0
M  V30 END ATOM
M  V30 BEGIN BOND
M  V30 1 3 1 2
M  V30 2 1 1 7
M  V30 3 1 1 8
M  V30 4 2 2 4
M  V30 5 2 2 5
M  V30 6 2 3 5
M  V30 7 1 3 6
M  V30 8 1 3 11
M  V30 9 1 4 9
M  V30 10 1 5 10
M  V30 11 1 6 12
M  V30 END BOND
M  V30 END CTAB
M  END
>  <ID>
42
$$$$
Structure_43
Score 	 8.0, smilesprid 	smiles	 smilestrue 	smiles	 similartanimoto 	0	 similardice 	0

   12   11  0  0  0  0            999 V3000
M  V30 BEGIN CTAB
M  V30 COUNTS 12 11 0 0 0
M  V30 BEGIN ATOM
M  V30 1 C -1.7578 -0.7812 0.0000 0
M  V30 2 C -0.5859 0.1953 0.0000 0
M  V30 3 C 1.7578 0.1953 0.0000 0
M  V30 4 N -0.7812 1.3672 0.0000 0
M  V30 5 N 0.3906 -0.5859 0.0000 0
M  V30 6 N 2.7344 -0.5859 0.0000 0
M  V30 7 O -3.1250 -0.3906 0.0000 0
M  V30 8 H -1.5625 -1.9531 0.0000 0
M  V30 9 H -1.5625 1.7578 0.0000 0
M  V30 10 H 0.5859 -1.7578 0.0000 0
M  V30 11 H 1.7578 1.1719 0.0000 0
M  V30 12 H 3.5156 0.1953 0.0000 0
M  V30 END ATOM
M  V30 BEGIN BOND
M  V30 1 1 1 2
M  V30 2 1 1 7
M  V30 3 1 1 8
M  V30 4 3 2 4
M  V30 5 2 2 5
M  V30 6 2 3 5
M  V30 7 1 3 6
M  V30 8 1 3 11
M  V30 9 1 4 9
M  V30 10 1 5 10
M  V30 11 1 6 12
M  V30 END BOND
M  V30 END CTAB
M  END
>  <ID>
43
$$$$
Structure_44
Score 	 8.0, smilesprid 	smiles	 smilestrue 	smiles	 similartanimoto 	0	 similardice 	0

   12   11  0  0  0  0            999 V3000
M  V30 BEGIN CTAB
M  V30 COUNTS 12 11 0 0 0
M  V30 BEGIN ATOM
M  V30 1 C -1.7578 -0.7812 0.0000 0
M  V30 2 C -0.5859 0.1953 0.0000 0
M  V30 3 C 1.7578 0.1953 0.0000 0
M  V30 4 N -0.7812 1.3672 0.0000 0
M  V30 5 N 0.3906 -0.5859 0.0000 0
M  V30 6 N 2.7344 -0.5859 0.0000 0
M  V30 7 O -3.1250 -0.3906 0.0000 0
M  V30 8 H -1.5625 -1.9531 0.0000 0
M  V30 9 H -1.5625 1.7578 0.0000 0
M  V30 10 H 0.5859 -1.7578 0.0000 0
M  V30 11 H 1.7578 1.1719 0.0000 0
M  V30 12 H 3.5156 0.1953 0.0000 0
M  V30 END ATOM
M  V30 BEGIN BOND
M  V30 1 2 1 2
M  V30 2 1 1 7
M  V30 3 1 1 8
M  V30 4 3 2 4
M  V30 5 2 2 5
M  V30 6 2 3 5
M  V30 7 1 3 6
M  V30 8 1 3 11
M  V30 9 1 4 9
M  V30 10 1 5 10
M  V30 11 1 6 12
M  V30 END BOND
M  V30 END CTAB
M  END
>  <ID>
44
$$$$
Structure_45
Score 	 10.0, smilesprid 	smiles	 smilestrue 	smiles	 similartanimoto 	0	 similardice 	0

   12   11  0  0  0  0            999 V3000
M  V30 BEGIN CTAB
M  V30 COUNTS 12 11 0 0 0
M  V30 BEGIN ATOM
M  V30 1 C -1.7578 -0.7812 0.0000 0
M  V30 2 C -0.5859 0.1953 0.0000 0
M  V30 3 C 1.7578 0.1953 0.0000 0
M  V30 4 N -0.7812 1.3672 0.0000 0
M  V30 5 N 0.3906 -0.5859 0.0000 0
M  V30 6 N 2.7344 -0.5859 0.0000 0
M  V30 7 O -3.1250 -0.3906 0.0000 0
M  V30 8 H -1.5625 -1.9531 0.0000 0
M  V30 9 H -1.5625 1.7578 0.0000 0
M  V30 10 H 0.5859 -1.7578 0.0000 0
M  V30 11 H 1.7578 1.1719 0.0000 0
M  V30 12 H 3.5156 0.1953 0.0000 0
M  V30 END ATOM
M  V30 BEGIN BOND
M  V30 1 3 1 2
M  V30 2 1 1 7
M  V30 3 1 1 8
M  V30 4 3 2 4
M  V30 5 2 2 5
M  V30 6 2 3 5
M  V30 7 1 3 6
M  V30 8 1 3 11
M  V30 9 1 4 9
M  V30 10 1 5 10
M  V30 11 1 6 12
M  V30 END BOND
M  V30 END CTAB
M  END
>  <ID>
45
$$$$
Structure_46
Score 	 8.0, smilesprid 	smiles	 smilestrue 	smiles	 similartanimoto 	0	 similardice 	0

   12   11  0  0  0  0            999 V3000
M  V30 BEGIN CTAB
M  V30 COUNTS 12 11 0 0 0
M  V30 BEGIN ATOM
M  V30 1 C -1.7578 -0.7812 0.0000 0
M  V30 2 C -0.5859 0.1953 0.0000 0
M  V30 3 C 1.7578 0.1953 0.0000 0
M  V30 4 N -0.7812 1.3672 0.0000 0
M  V30 5 N 0.3906 -0.5859 0.0000 0
M  V30 6 N 2.7344 -0.5859 0.0000 0
M  V30 7 O -3.1250 -0.3906 0.0000 0
M  V30 8 H -1.5625 -1.9531 0.0000 0
M  V30 9 H -1.5625 1.7578 0.0000 0
M  V30 10 H 0.5859 -1.7578 0.0000 0
M  V30 11 H 1.7578 1.1719 0.0000 0
M  V30 12 H 3.5156 0.1953 0.0000 0
M  V30 END ATOM
M  V30 BEGIN BOND
M  V30 1 1 1 2
M  V30 2 1 1 7
M  V30 3 1 1 8
M  V30 4 1 2 4
M  V30 5 3 2 5
M  V30 6 2 3 5
M  V30 7 1 3 6
M  V30 8 1 3 11
M  V30 9 1 4 9
M  V30 10 1 5 10
M  V30 11 1 6 12
M  V30 END BOND
M  V30 END CTAB
M  END
>  <ID>
46
$$$$
Structure_47
Score 	 8.0, smilesprid 	smiles	 smilestrue 	smiles	 similartanimoto 	0	 similardice 	0

   12   11  0  0  0  0            999 V3000
M  V30 BEGIN CTAB
M  V30 COUNTS 12 11 0 0 0
M  V30 BEGIN ATOM
M  V30 1 C -1.7578 -0.7812 0.0000 0
M  V30 2 C -0.5859 0.1953 0.0000 0
M  V30 3 C 1.7578 0.1953 0.0000 0
M  V30 4 N -0.7812 1.3672 0.0000 0
M  V30 5 N 0.3906 -0.5859 0.0000 0
M  V30 6 N 2.7344 -0.5859 0.0000 0
M  V30 7 O -3.1250 -0.3906 0.0000 0
M  V30 8 H -1.5625 -1.9531 0.0000 0
M  V30 9 H -1.5625 1.7578 0.0000 0
M  V30 10 H 0.5859 -1.7578 0.0000 0
M  V30 11 H 1.7578 1.1719 0.0000 0
M  V30 12 H 3.5156 0.1953 0.0000 0
M  V30 END ATOM
M  V30 BEGIN BOND
M  V30 1 2 1 2
M  V30 2 1 1 7
M  V30 3 1 1 8
M  V30 4 1 2 4
M  V30 5 3 2 5
M  V30 6 2 3 5
M  V30 7 1 3 6
M  V30 8 1 3 11
M  V30 9 1 4 9
M  V30 10 1 5 10
M  V30 11 1 6 12
M  V30 END BOND
M  V30 END CTAB
M  END
>  <ID>
47
$$$$
Structure_48
Score 	 10.0, smilesprid 	smiles	 smilestrue 	smiles	 similartanimoto 	0	 similardice 	0

   12   11  0  0  0  0            999 V3000
M  V30 BEGIN CTAB
M  V30 COUNTS 12 11 0 0 0
M  V30 BEGIN ATOM
M  V30 1 C -1.7578 -0.7812 0.0000 0
M  V30 2 C -0.5859 0.1953 0.0000 0
M  V30 3 C 1.7578 0.1953 0.0000 0
M  V30 4 N -0.7812 1.3672 0.0000 0
M  V30 5 N 0.3906 -0.5859 0.0000 0
M  V30 6 N 2.7344 -0.5859 0.0000 0
M  V30 7 O -3.1250 -0.3906 0.0000 0
M  V30 8 H -1.5625 -1.9531 0.0000 0
M  V30 9 H -1.5625 1.7578 0.0000 0
M  V30 10 H 0.5859 -1.7578 0.0000 0
M  V30 11 H 1.7578 1.1719 0.0000 0
M  V30 12 H 3.5156 0.1953 0.0000 0
M  V30 END ATOM
M  V30 BEGIN BOND
M  V30 1 3 1 2
M  V30 2 1 1 7
M  V30 3 1 1 8
M  V30 4 1 2 4
M  V30 5 3 2 5
M  V30 6 2 3 5
M  V30 7 1 3 6
M  V30 8 1 3 11
M  V30 9 1 4 9
M  V30 10 1 5 10
M  V30 11 1 6 12
M  V30 END BOND
M  V30 END CTAB
M  END
>  <ID>
48
$$$$
Structure_49
Score 	 8.0, smilesprid 	smiles	 smilestrue 	smiles	 similartanimoto 	0	 similardice 	0

   12   11  0  0  0  0            999 V3000
M  V30 BEGIN CTAB
M  V30 COUNTS 12 11 0 0 0
M  V30 BEGIN ATOM
M  V30 1 C -1.7578 -0.7812 0.0000 0
M  V30 2 C -0.5859 0.1953 0.0000 0
M  V30 3 C 1.7578 0.1953 0.0000 0
M  V30 4 N -0.7812 1.3672 0.0000 0
M  V30 5 N 0.3906 -0.5859 0.0000 0
M  V30 6 N 2.7344 -0.5859 0.0000 0
M  V30 7 O -3.1250 -0.3906 0.0000 0
M  V30 8 H -1.5625 -1.9531 0.0000 0
M  V30 9 H -1.5625 1.7578 0.0000 0
M  V30 10 H 0.5859 -1.7578 0.0000 0
M  V30 11 H 1.7578 1.1719 0.0000 0
M  V30 12 H 3.5156 0.1953 0.0000 0
M  V30 END ATOM
M  V30 BEGIN BOND
M  V30 1 1 1 2
M  V30 2 1 1 7
M  V30 3 1 1 8
M  V30 4 2 2 4
M  V30 5 3 2 5
M  V30 6 2 3 5
M  V30 7 1 3 6
M  V30 8 1 3 11
M  V30 9 1 4 9
M  V30 10 1 5 10
M  V30 11 1 6 12
M  V30 END BOND
M  V30 END CTAB
M  END
>  <ID>
49
$$$$
Structure_50
Score 	 8.0, smilesprid 	smiles	 smilestrue 	smiles	 similartanimoto 	0	 similardice 	0

   12   11  0  0  0  0            999 V3000
M  V30 BEGIN CTAB
M  V30 COUNTS 12 11 0 0 0
M  V30 BEGIN ATOM
M  V30 1 C -1.7578 -0.7812 0.0000 0
M  V30 2 C -0.5859 0.1953 0.0000 0
M  V30 3 C 1.7578 0.1953 0.0000 0
M  V30 4 N -0.7812 1.3672 0.0000 0
M  V30 5 N 0.3906 -0.5859 0.0000 0
M  V30 6 N 2.7344 -0.5859 0.0000 0
M  V30 7 O -3.1250 -0.3906 0.0000 0
M  V30 8 H -1.5625 -1.9531 0.0000 0
M  V30 9 H -1.5625 1.7578 0.0000 0
M  V30 10 H 0.5859 -1.7578 0.0000 0
M  V30 11 H 1.7578 1.1719 0.0000 0
M  V30 12 H 3.5156 0.1953 0.0000 0
M  V30 END ATOM
M  V30 BEGIN BOND
M  V30 1 2 1 2
M  V30 2 1 1 7
M  V30 3 1 1 8
M  V30 4 2 2 4
M  V30 5 3 2 5
M  V30 6 2 3 5
M  V30 7 1 3 6
M  V30 8 1 3 11
M  V30 9 1 4 9
M  V30 10 1 5 10
M  V30 11 1 6 12
M  V30 END BOND
M  V30 END CTAB
M  END
>  <ID>
50
$$$$
Structure_51
Score 	 10.0, smilesprid 	smiles	 smilestrue 	smiles	 similartanimoto 	0	 similardice 	0

   12   11  0  0  0  0            999 V3000
M  V30 BEGIN CTAB
M  V30 COUNTS 12 11 0 0 0
M  V30 BEGIN ATOM
M  V30 1 C -1.7578 -0.7812 0.0000 0
M  V30 2 C -0.5859 0.1953 0.0000 0
M  V30 3 C 1.7578 0.1953 0.0000 0
M  V30 4 N -0.7812 1.3672 0.0000 0
M  V30 5 N 0.3906 -0.5859 0.0000 0
M  V30 6 N 2.7344 -0.5859 0.0000 0
M  V30 7 O -3.1250 -0.3906 0.0000 0
M  V30 8 H -1.5625 -1.9531 0.0000 0
M  V30 9 H -1.5625 1.7578 0.0000 0
M  V30 10 H 0.5859 -1.7578 0.0000 0
M  V30 11 H 1.7578 1.1719 0.0000 0
M  V30 12 H 3.5156 0.1953 0.0000 0
M  V30 END ATOM
M  V30 BEGIN BOND
M  V30 1 3 1 2
M  V30 2 1 1 7
M  V30 3 1 1 8
M  V30 4 2 2 4
M  V30 5 3 2 5
M  V30 6 2 3 5
M  V30 7 1 3 6
M  V30 8 1 3 11
M  V30 9 1 4 9
M  V30 10 1 5 10
M  V30 11 1 6 12
M  V30 END BOND
M  V30 END CTAB
M  END
>  <ID>
51
$$$$
Structure_52
Score 	 10.0, smilesprid 	smiles	 smilestrue 	smiles	 similartanimoto 	0	 similardice 	0

   12   11  0  0  0  0            999 V3000
M  V30 BEGIN CTAB
M  V30 COUNTS 12 11 0 0 0
M  V30 BEGIN ATOM
M  V30 1 C -1.7578 -0.7812 0.0000 0
M  V30 2 C -0.5859 0.1953 0.0000 0
M  V30 3 C 1.7578 0.1953 0.0000 0
M  V30 4 N -0.7812 1.3672 0.0000 0
M  V30 5 N 0.3906 -0.5859 0.0000 0
M  V30 6 N 2.7344 -0.5859 0.0000 0
M  V30 7 O -3.1250 -0.3906 0.0000 0
M  V30 8 H -1.5625 -1.9531 0.0000 0
M  V30 9 H -1.5625 1.7578 0.0000 0
M  V30 10 H 0.5859 -1.7578 0.0000 0
M  V30 11 H 1.7578 1.1719 0.0000 0
M  V30 12 H 3.5156 0.1953 0.0000 0
M  V30 END ATOM
M  V30 BEGIN BOND
M  V30 1 1 1 2
M  V30 2 1 1 7
M  V30 3 1 1 8
M  V30 4 3 2 4
M  V30 5 3 2 5
M  V30 6 2 3 5
M  V30 7 1 3 6
M  V30 8 1 3 11
M  V30 9 1 4 9
M  V30 10 1 5 10
M  V30 11 1 6 12
M  V30 END BOND
M  V30 END CTAB
M  END
>  <ID>
52
$$$$
Structure_53
Score 	 10.0, smilesprid 	smiles	 smilestrue 	smiles	 similartanimoto 	0	 similardice 	0

   12   11  0  0  0  0            999 V3000
M  V30 BEGIN CTAB
M  V30 COUNTS 12 11 0 0 0
M  V30 BEGIN ATOM
M  V30 1 C -1.7578 -0.7812 0.0000 0
M  V30 2 C -0.5859 0.1953 0.0000 0
M  V30 3 C 1.7578 0.1953 0.0000 0
M  V30 4 N -0.7812 1.3672 0.0000 0
M  V30 5 N 0.3906 -0.5859 0.0000 0
M  V30 6 N 2.7344 -0.5859 0.0000 0
M  V30 7 O -3.1250 -0.3906 0.0000 0
M  V30 8 H -1.5625 -1.9531 0.0000 0
M  V30 9 H -1.5625 1.7578 0.0000 0
M  V30 10 H 0.5859 -1.7578 0.0000 0
M  V30 11 H 1.7578 1.1719 0.0000 0
M  V30 12 H 3.5156 0.1953 0.0000 0
M  V30 END ATOM
M  V30 BEGIN BOND
M  V30 1 2 1 2
M  V30 2 1 1 7
M  V30 3 1 1 8
M  V30 4 3 2 4
M  V30 5 3 2 5
M  V30 6 2 3 5
M  V30 7 1 3 6
M  V30 8 1 3 11
M  V30 9 1 4 9
M  V30 10 1 5 10
M  V30 11 1 6 12
M  V30 END BOND
M  V30 END CTAB
M  END
>  <ID>
53
$$$$
Structure_54
Score 	 12.0, smilesprid 	smiles	 smilestrue 	smiles	 similartanimoto 	0	 similardice 	0

   12   11  0  0  0  0            999 V3000
M  V30 BEGIN CTAB
M  V30 COUNTS 12 11 0 0 0
M  V30 BEGIN ATOM
M  V30 1 C -1.7578 -0.7812 0.0000 0
M  V30 2 C -0.5859 0.1953 0.0000 0
M  V30 3 C 1.7578 0.1953 0.0000 0
M  V30 4 N -0.7812 1.3672 0.0000 0
M  V30 5 N 0.3906 -0.5859 0.0000 0
M  V30 6 N 2.7344 -0.5859 0.0000 0
M  V30 7 O -3.1250 -0.3906 0.0000 0
M  V30 8 H -1.5625 -1.9531 0.0000 0
M  V30 9 H -1.5625 1.7578 0.0000 0
M  V30 10 H 0.5859 -1.7578 0.0000 0
M  V30 11 H 1.7578 1.1719 0.0000 0
M  V30 12 H 3.5156 0.1953 0.0000 0
M  V30 END ATOM
M  V30 BEGIN BOND
M  V30 1 3 1 2
M  V30 2 1 1 7
M  V30 3 1 1 8
M  V30 4 3 2 4
M  V30 5 3 2 5
M  V30 6 2 3 5
M  V30 7 1 3 6
M  V30 8 1 3 11
M  V30 9 1 4 9
M  V30 10 1 5 10
M  V30 11 1 6 12
M  V30 END BOND
M  V30 END CTAB
M  END
>  <ID>
54
$$$$
Structure_55
Score 	 8.0, smilesprid 	smiles	 smilestrue 	smiles	 similartanimoto 	0	 similardice 	0

   12   11  0  0  0  0            999 V3000
M  V30 BEGIN CTAB
M  V30 COUNTS 12 11 0 0 0
M  V30 BEGIN ATOM
M  V30 1 C -1.7578 -0.7812 0.0000 0
M  V30 2 C -0.5859 0.1953 0.0000 0
M  V30 3 C 1.7578 0.1953 0.0000 0
M  V30 4 N -0.7812 1.3672 0.0000 0
M  V30 5 N 0.3906 -0.5859 0.0000 0
M  V30 6 N 2.7344 -0.5859 0.0000 0
M  V30 7 O -3.1250 -0.3906 0.0000 0
M  V30 8 H -1.5625 -1.9531 0.0000 0
M  V30 9 H -1.5625 1.7578 0.0000 0
M  V30 10 H 0.5859 -1.7578 0.0000 0
M  V30 11 H 1.7578 1.1719 0.0000 0
M  V30 12 H 3.5156 0.1953 0.0000 0
M  V30 END ATOM
M  V30 BEGIN BOND
M  V30 1 1 1 2
M  V30 2 1 1 7
M  V30 3 1 1 8
M  V30 4 1 2 4
M  V30 5 1 2 5
M  V30 6 3 3 5
M  V30 7 1 3 6
M  V30 8 1 3 11
M  V30 9 1 4 9
M  V30 10 1 5 10
M  V30 11 1 6 12
M  V30 END BOND
M  V30 END CTAB
M  END
>  <ID>
55
$$$$
Structure_56
Score 	 6.0, smilesprid 	smiles	 smilestrue 	smiles	 similartanimoto 	0	 similardice 	0

   12   11  0  0  0  0            999 V3000
M  V30 BEGIN CTAB
M  V30 COUNTS 12 11 0 0 0
M  V30 BEGIN ATOM
M  V30 1 C -1.7578 -0.7812 0.0000 0
M  V30 2 C -0.5859 0.1953 0.0000 0
M  V30 3 C 1.7578 0.1953 0.0000 0
M  V30 4 N -0.7812 1.3672 0.0000 0
M  V30 5 N 0.3906 -0.5859 0.0000 0
M  V30 6 N 2.7344 -0.5859 0.0000 0
M  V30 7 O -3.1250 -0.3906 0.0000 0
M  V30 8 H -1.5625 -1.9531 0.0000 0
M  V30 9 H -1.5625 1.7578 0.0000 0
M  V30 10 H 0.5859 -1.7578 0.0000 0
M  V30 11 H 1.7578 1.1719 0.0000 0
M  V30 12 H 3.5156 0.1953 0.0000 0
M  V30 END ATOM
M  V30 BEGIN BOND
M  V30 1 2 1 2
M  V30 2 1 1 7
M  V30 3 1 1 8
M  V30 4 1 2 4
M  V30 5 1 2 5
M  V30 6 3 3 5
M  V30 7 1 3 6
M  V30 8 1 3 11
M  V30 9 1 4 9
M  V30 10 1 5 10
M  V30 11 1 6 12
M  V30 END BOND
M  V30 END CTAB
M  END
>  <ID>
56
$$$$
Structure_57
Score 	 8.0, smilesprid 	smiles	 smilestrue 	smiles	 similartanimoto 	0	 similardice 	0

   12   11  0  0  0  0            999 V3000
M  V30 BEGIN CTAB
M  V30 COUNTS 12 11 0 0 0
M  V30 BEGIN ATOM
M  V30 1 C -1.7578 -0.7812 0.0000 0
M  V30 2 C -0.5859 0.1953 0.0000 0
M  V30 3 C 1.7578 0.1953 0.0000 0
M  V30 4 N -0.7812 1.3672 0.0000 0
M  V30 5 N 0.3906 -0.5859 0.0000 0
M  V30 6 N 2.7344 -0.5859 0.0000 0
M  V30 7 O -3.1250 -0.3906 0.0000 0
M  V30 8 H -1.5625 -1.9531 0.0000 0
M  V30 9 H -1.5625 1.7578 0.0000 0
M  V30 10 H 0.5859 -1.7578 0.0000 0
M  V30 11 H 1.7578 1.1719 0.0000 0
M  V30 12 H 3.5156 0.1953 0.0000 0
M  V30 END ATOM
M  V30 BEGIN BOND
M  V30 1 3 1 2
M  V30 2 1 1 7
M  V30 3 1 1 8
M  V30 4 1 2 4
M  V30 5 1 2 5
M  V30 6 3 3 5
M  V30 7 1 3 6
M  V30 8 1 3 11
M  V30 9 1 4 9
M  V30 10 1 5 10
M  V30 11 1 6 12
M  V30 END BOND
M  V30 END CTAB
M  END
>  <ID>
57
$$$$
Structure_58
Score 	 6.0, smilesprid 	smiles	 smilestrue 	smiles	 similartanimoto 	0	 similardice 	0

   12   11  0  0  0  0            999 V3000
M  V30 BEGIN CTAB
M  V30 COUNTS 12 11 0 0 0
M  V30 BEGIN ATOM
M  V30 1 C -1.7578 -0.7812 0.0000 0
M  V30 2 C -0.5859 0.1953 0.0000 0
M  V30 3 C 1.7578 0.1953 0.0000 0
M  V30 4 N -0.7812 1.3672 0.0000 0
M  V30 5 N 0.3906 -0.5859 0.0000 0
M  V30 6 N 2.7344 -0.5859 0.0000 0
M  V30 7 O -3.1250 -0.3906 0.0000 0
M  V30 8 H -1.5625 -1.9531 0.0000 0
M  V30 9 H -1.5625 1.7578 0.0000 0
M  V30 10 H 0.5859 -1.7578 0.0000 0
M  V30 11 H 1.7578 1.1719 0.0000 0
M  V30 12 H 3.5156 0.1953 0.0000 0
M  V30 END ATOM
M  V30 BEGIN BOND
M  V30 1 1 1 2
M  V30 2 1 1 7
M  V30 3 1 1 8
M  V30 4 2 2 4
M  V30 5 1 2 5
M  V30 6 3 3 5
M  V30 7 1 3 6
M  V30 8 1 3 11
M  V30 9 1 4 9
M  V30 10 1 5 10
M  V30 11 1 6 12
M  V30 END BOND
M  V30 END CTAB
M  END
>  <ID>
58
$$$$
Structure_59
Score 	 6.0, smilesprid 	smiles	 smilestrue 	smiles	 similartanimoto 	0	 similardice 	0

   12   11  0  0  0  0            999 V3000
M  V30 BEGIN CTAB
M  V30 COUNTS 12 11 0 0 0
M  V30 BEGIN ATOM
M  V30 1 C -1.7578 -0.7812 0.0000 0
M  V30 2 C -0.5859 0.1953 0.0000 0
M  V30 3 C 1.7578 0.1953 0.0000 0
M  V30 4 N -0.7812 1.3672 0.0000 0
M  V30 5 N 0.3906 -0.5859 0.0000 0
M  V30 6 N 2.7344 -0.5859 0.0000 0
M  V30 7 O -3.1250 -0.3906 0.0000 0
M  V30 8 H -1.5625 -1.9531 0.0000 0
M  V30 9 H -1.5625 1.7578 0.0000 0
M  V30 10 H 0.5859 -1.7578 0.0000 0
M  V30 11 H 1.7578 1.1719 0.0000 0
M  V30 12 H 3.5156 0.1953 0.0000 0
M  V30 END ATOM
M  V30 BEGIN BOND
M  V30 1 2 1 2
M  V30 2 1 1 7
M  V30 3 1 1 8
M  V30 4 2 2 4
M  V30 5 1 2 5
M  V30 6 3 3 5
M  V30 7 1 3 6
M  V30 8 1 3 11
M  V30 9 1 4 9
M  V30 10 1 5 10
M  V30 11 1 6 12
M  V30 END BOND
M  V30 END CTAB
M  END
>  <ID>
59
$$$$
Structure_60
Score 	 8.0, smilesprid 	smiles	 smilestrue 	smiles	 similartanimoto 	0	 similardice 	0

   12   11  0  0  0  0            999 V3000
M  V30 BEGIN CTAB
M  V30 COUNTS 12 11 0 0 0
M  V30 BEGIN ATOM
M  V30 1 C -1.7578 -0.7812 0.0000 0
M  V30 2 C -0.5859 0.1953 0.0000 0
M  V30 3 C 1.7578 0.1953 0.0000 0
M  V30 4 N -0.7812 1.3672 0.0000 0
M  V30 5 N 0.3906 -0.5859 0.0000 0
M  V30 6 N 2.7344 -0.5859 0.0000 0
M  V30 7 O -3.1250 -0.3906 0.0000 0
M  V30 8 H -1.5625 -1.9531 0.0000 0
M  V30 9 H -1.5625 1.7578 0.0000 0
M  V30 10 H 0.5859 -1.7578 0.0000 0
M  V30 11 H 1.7578 1.1719 0.0000 0
M  V30 12 H 3.5156 0.1953 0.0000 0
M  V30 END ATOM
M  V30 BEGIN BOND
M  V30 1 3 1 2
M  V30 2 1 1 7
M  V30 3 1 1 8
M  V30 4 2 2 4
M  V30 5 1 2 5
M  V30 6 3 3 5
M  V30 7 1 3 6
M  V30 8 1 3 11
M  V30 9 1 4 9
M  V30 10 1 5 10
M  V30 11 1 6 12
M  V30 END BOND
M  V30 END CTAB
M  END
>  <ID>
60
$$$$
Structure_61
Score 	 8.0, smilesprid 	smiles	 smilestrue 	smiles	 similartanimoto 	0	 similardice 	0

   12   11  0  0  0  0            999 V3000
M  V30 BEGIN CTAB
M  V30 COUNTS 12 11 0 0 0
M  V30 BEGIN ATOM
M  V30 1 C -1.7578 -0.7812 0.0000 0
M  V30 2 C -0.5859 0.1953 0.0000 0
M  V30 3 C 1.7578 0.1953 0.0000 0
M  V30 4 N -0.7812 1.3672 0.0000 0
M  V30 5 N 0.3906 -0.5859 0.0000 0
M  V30 6 N 2.7344 -0.5859 0.0000 0
M  V30 7 O -3.1250 -0.3906 0.0000 0
M  V30 8 H -1.5625 -1.9531 0.0000 0
M  V30 9 H -1.5625 1.7578 0.0000 0
M  V30 10 H 0.5859 -1.7578 0.0000 0
M  V30 11 H 1.7578 1.1719 0.0000 0
M  V30 12 H 3.5156 0.1953 0.0000 0
M  V30 END ATOM
M  V30 BEGIN BOND
M  V30 1 1 1 2
M  V30 2 1 1 7
M  V30 3 1 1 8
M  V30 4 3 2 4
M  V30 5 1 2 5
M  V30 6 3 3 5
M  V30 7 1 3 6
M  V30 8 1 3 11
M  V30 9 1 4 9
M  V30 10 1 5 10
M  V30 11 1 6 12
M  V30 END BOND
M  V30 END CTAB
M  END
>  <ID>
61
$$$$
Structure_62
Score 	 8.0, smilesprid 	smiles	 smilestrue 	smiles	 similartanimoto 	0	 similardice 	0

   12   11  0  0  0  0            999 V3000
M  V30 BEGIN CTAB
M  V30 COUNTS 12 11 0 0 0
M  V30 BEGIN ATOM
M  V30 1 C -1.7578 -0.7812 0.0000 0
M  V30 2 C -0.5859 0.1953 0.0000 0
M  V30 3 C 1.7578 0.1953 0.0000 0
M  V30 4 N -0.7812 1.3672 0.0000 0
M  V30 5 N 0.3906 -0.5859 0.0000 0
M  V30 6 N 2.7344 -0.5859 0.0000 0
M  V30 7 O -3.1250 -0.3906 0.0000 0
M  V30 8 H -1.5625 -1.9531 0.0000 0
M  V30 9 H -1.5625 1.7578 0.0000 0
M  V30 10 H 0.5859 -1.7578 0.0000 0
M  V30 11 H 1.7578 1.1719 0.0000 0
M  V30 12 H 3.5156 0.1953 0.0000 0
M  V30 END ATOM
M  V30 BEGIN BOND
M  V30 1 2 1 2
M  V30 2 1 1 7
M  V30 3 1 1 8
M  V30 4 3 2 4
M  V30 5 1 2 5
M  V30 6 3 3 5
M  V30 7 1 3 6
M  V30 8 1 3 11
M  V30 9 1 4 9
M  V30 10 1 5 10
M  V30 11 1 6 12
M  V30 END BOND
M  V30 END CTAB
M  END
>  <ID>
62
$$$$
Structure_63
Score 	 10.0, smilesprid 	smiles	 smilestrue 	smiles	 similartanimoto 	0	 similardice 	0

   12   11  0  0  0  0            999 V3000
M  V30 BEGIN CTAB
M  V30 COUNTS 12 11 0 0 0
M  V30 BEGIN ATOM
M  V30 1 C -1.7578 -0.7812 0.0000 0
M  V30 2 C -0.5859 0.1953 0.0000 0
M  V30 3 C 1.7578 0.1953 0.0000 0
M  V30 4 N -0.7812 1.3672 0.0000 0
M  V30 5 N 0.3906 -0.5859 0.0000 0
M  V30 6 N 2.7344 -0.5859 0.0000 0
M  V30 7 O -3.1250 -0.3906 0.0000 0
M  V30 8 H -1.5625 -1.9531 0.0000 0
M  V30 9 H -1.5625 1.7578 0.0000 0
M  V30 10 H 0.5859 -1.7578 0.0000 0
M  V30 11 H 1.7578 1.1719 0.0000 0
M  V30 12 H 3.5156 0.1953 0.0000 0
M  V30 END ATOM
M  V30 BEGIN BOND
M  V30 1 3 1 2
M  V30 2 1 1 7
M  V30 3 1 1 8
M  V30 4 3 2 4
M  V30 5 1 2 5
M  V30 6 3 3 5
M  V30 7 1 3 6
M  V30 8 1 3 11
M  V30 9 1 4 9
M  V30 10 1 5 10
M  V30 11 1 6 12
M  V30 END BOND
M  V30 END CTAB
M  END
>  <ID>
63
$$$$
Structure_64
Score 	 8.0, smilesprid 	smiles	 smilestrue 	smiles	 similartanimoto 	0	 similardice 	0

   12   11  0  0  0  0            999 V3000
M  V30 BEGIN CTAB
M  V30 COUNTS 12 11 0 0 0
M  V30 BEGIN ATOM
M  V30 1 C -1.7578 -0.7812 0.0000 0
M  V30 2 C -0.5859 0.1953 0.0000 0
M  V30 3 C 1.7578 0.1953 0.0000 0
M  V30 4 N -0.7812 1.3672 0.0000 0
M  V30 5 N 0.3906 -0.5859 0.0000 0
M  V30 6 N 2.7344 -0.5859 0.0000 0
M  V30 7 O -3.1250 -0.3906 0.0000 0
M  V30 8 H -1.5625 -1.9531 0.0000 0
M  V30 9 H -1.5625 1.7578 0.0000 0
M  V30 10 H 0.5859 -1.7578 0.0000 0
M  V30 11 H 1.7578 1.1719 0.0000 0
M  V30 12 H 3.5156 0.1953 0.0000 0
M  V30 END ATOM
M  V30 BEGIN BOND
M  V30 1 1 1 2
M  V30 2 1 1 7
M  V30 3 1 1 8
M  V30 4 1 2 4
M  V30 5 2 2 5
M  V30 6 3 3 5
M  V30 7 1 3 6
M  V30 8 1 3 11
M  V30 9 1 4 9
M  V30 10 1 5 10
M  V30 11 1 6 12
M  V30 END BOND
M  V30 END CTAB
M  END
>  <ID>
64
$$$$
Structure_65
Score 	 8.0, smilesprid 	smiles	 smilestrue 	smiles	 similartanimoto 	0	 similardice 	0

   12   11  0  0  0  0            999 V3000
M  V30 BEGIN CTAB
M  V30 COUNTS 12 11 0 0 0
M  V30 BEGIN ATOM
M  V30 1 C -1.7578 -0.7812 0.0000 0
M  V30 2 C -0.5859 0.1953 0.0000 0
M  V30 3 C 1.7578 0.1953 0.0000 0
M  V30 4 N -0.7812 1.3672 0.0000 0
M  V30 5 N 0.3906 -0.5859 0.0000 0
M  V30 6 N 2.7344 -0.5859 0.0000 0
M  V30 7 O -3.1250 -0.3906 0.0000 0
M  V30 8 H -1.5625 -1.9531 0.0000 0
M  V30 9 H -1.5625 1.7578 0.0000 0
M  V30 10 H 0.5859 -1.7578 0.0000 0
M  V30 11 H 1.7578 1.1719 0.0000 0
M  V30 12 H 3.5156 0.1953 0.0000 0
M  V30 END ATOM
M  V30 BEGIN BOND
M  V30 1 2 1 2
M  V30 2 1 1 7
M  V30 3 1 1 8
M  V30 4 1 2 4
M  V30 5 2 2 5
M  V30 6 3 3 5
M  V30 7 1 3 6
M  V30 8 1 3 11
M  V30 9 1 4 9
M  V30 10 1 5 10
M  V30 11 1 6 12
M  V30 END BOND
M  V30 END CTAB
M  END
>  <ID>
65
$$$$
Structure_66
Score 	 10.0, smilesprid 	smiles	 smilestrue 	smiles	 similartanimoto 	0	 similardice 	0

   12   11  0  0  0  0            999 V3000
M  V30 BEGIN CTAB
M  V30 COUNTS 12 11 0 0 0
M  V30 BEGIN ATOM
M  V30 1 C -1.7578 -0.7812 0.0000 0
M  V30 2 C -0.5859 0.1953 0.0000 0
M  V30 3 C 1.7578 0.1953 0.0000 0
M  V30 4 N -0.7812 1.3672 0.0000 0
M  V30 5 N 0.3906 -0.5859 0.0000 0
M  V30 6 N 2.7344 -0.5859 0.0000 0
M  V30 7 O -3.1250 -0.3906 0.0000 0
M  V30 8 H -1.5625 -1.9531 0.0000 0
M  V30 9 H -1.5625 1.7578 0.0000 0
M  V30 10 H 0.5859 -1.7578 0.0000 0
M  V30 11 H 1.7578 1.1719 0.0000 0
M  V30 12 H 3.5156 0.1953 0.0000 0
M  V30 END ATOM
M  V30 BEGIN BOND
M  V30 1 3 1 2
M  V30 2 1 1 7
M  V30 3 1 1 8
M  V30 4 1 2 4
M  V30 5 2 2 5
M  V30 6 3 3 5
M  V30 7 1 3 6
M  V30 8 1 3 11
M  V30 9 1 4 9
M  V30 10 1 5 10
M  V30 11 1 6 12
M  V30 END BOND
M  V30 END CTAB
M  END
>  <ID>
66
$$$$
Structure_67
Score 	 8.0, smilesprid 	smiles	 smilestrue 	smiles	 similartanimoto 	0	 similardice 	0

   12   11  0  0  0  0            999 V3000
M  V30 BEGIN CTAB
M  V30 COUNTS 12 11 0 0 0
M  V30 BEGIN ATOM
M  V30 1 C -1.7578 -0.7812 0.0000 0
M  V30 2 C -0.5859 0.1953 0.0000 0
M  V30 3 C 1.7578 0.1953 0.0000 0
M  V30 4 N -0.7812 1.3672 0.0000 0
M  V30 5 N 0.3906 -0.5859 0.0000 0
M  V30 6 N 2.7344 -0.5859 0.0000 0
M  V30 7 O -3.1250 -0.3906 0.0000 0
M  V30 8 H -1.5625 -1.9531 0.0000 0
M  V30 9 H -1.5625 1.7578 0.0000 0
M  V30 10 H 0.5859 -1.7578 0.0000 0
M  V30 11 H 1.7578 1.1719 0.0000 0
M  V30 12 H 3.5156 0.1953 0.0000 0
M  V30 END ATOM
M  V30 BEGIN BOND
M  V30 1 1 1 2
M  V30 2 1 1 7
M  V30 3 1 1 8
M  V30 4 2 2 4
M  V30 5 2 2 5
M  V30 6 3 3 5
M  V30 7 1 3 6
M  V30 8 1 3 11
M  V30 9 1 4 9
M  V30 10 1 5 10
M  V30 11 1 6 12
M  V30 END BOND
M  V30 END CTAB
M  END
>  <ID>
67
$$$$
Structure_68
Score 	 8.0, smilesprid 	smiles	 smilestrue 	smiles	 similartanimoto 	0	 similardice 	0

   12   11  0  0  0  0            999 V3000
M  V30 BEGIN CTAB
M  V30 COUNTS 12 11 0 0 0
M  V30 BEGIN ATOM
M  V30 1 C -1.7578 -0.7812 0.0000 0
M  V30 2 C -0.5859 0.1953 0.0000 0
M  V30 3 C 1.7578 0.1953 0.0000 0
M  V30 4 N -0.7812 1.3672 0.0000 0
M  V30 5 N 0.3906 -0.5859 0.0000 0
M  V30 6 N 2.7344 -0.5859 0.0000 0
M  V30 7 O -3.1250 -0.3906 0.0000 0
M  V30 8 H -1.5625 -1.9531 0.0000 0
M  V30 9 H -1.5625 1.7578 0.0000 0
M  V30 10 H 0.5859 -1.7578 0.0000 0
M  V30 11 H 1.7578 1.1719 0.0000 0
M  V30 12 H 3.5156 0.1953 0.0000 0
M  V30 END ATOM
M  V30 BEGIN BOND
M  V30 1 2 1 2
M  V30 2 1 1 7
M  V30 3 1 1 8
M  V30 4 2 2 4
M  V30 5 2 2 5
M  V30 6 3 3 5
M  V30 7 1 3 6
M  V30 8 1 3 11
M  V30 9 1 4 9
M  V30 10 1 5 10
M  V30 11 1 6 12
M  V30 END BOND
M  V30 END CTAB
M  END
>  <ID>
68
$$$$
Structure_69
Score 	 10.0, smilesprid 	smiles	 smilestrue 	smiles	 similartanimoto 	0	 similardice 	0

   12   11  0  0  0  0            999 V3000
M  V30 BEGIN CTAB
M  V30 COUNTS 12 11 0 0 0
M  V30 BEGIN ATOM
M  V30 1 C -1.7578 -0.7812 0.0000 0
M  V30 2 C -0.5859 0.1953 0.0000 0
M  V30 3 C 1.7578 0.1953 0.0000 0
M  V30 4 N -0.7812 1.3672 0.0000 0
M  V30 5 N 0.3906 -0.5859 0.0000 0
M  V30 6 N 2.7344 -0.5859 0.0000 0
M  V30 7 O -3.1250 -0.3906 0.0000 0
M  V30 8 H -1.5625 -1.9531 0.0000 0
M  V30 9 H -1.5625 1.7578 0.0000 0
M  V30 10 H 0.5859 -1.7578 0.0000 0
M  V30 11 H 1.7578 1.1719 0.0000 0
M  V30 12 H 3.5156 0.1953 0.0000 0
M  V30 END ATOM
M  V30 BEGIN BOND
M  V30 1 3 1 2
M  V30 2 1 1 7
M  V30 3 1 1 8
M  V30 4 2 2 4
M  V30 5 2 2 5
M  V30 6 3 3 5
M  V30 7 1 3 6
M  V30 8 1 3 11
M  V30 9 1 4 9
M  V30 10 1 5 10
M  V30 11 1 6 12
M  V30 END BOND
M  V30 END CTAB
M  END
>  <ID>
69
$$$$
Structure_70
Score 	 10.0, smilesprid 	smiles	 smilestrue 	smiles	 similartanimoto 	0	 similardice 	0

   12   11  0  0  0  0            999 V3000
M  V30 BEGIN CTAB
M  V30 COUNTS 12 11 0 0 0
M  V30 BEGIN ATOM
M  V30 1 C -1.7578 -0.7812 0.0000 0
M  V30 2 C -0.5859 0.1953 0.0000 0
M  V30 3 C 1.7578 0.1953 0.0000 0
M  V30 4 N -0.7812 1.3672 0.0000 0
M  V30 5 N 0.3906 -0.5859 0.0000 0
M  V30 6 N 2.7344 -0.5859 0.0000 0
M  V30 7 O -3.1250 -0.3906 0.0000 0
M  V30 8 H -1.5625 -1.9531 0.0000 0
M  V30 9 H -1.5625 1.7578 0.0000 0
M  V30 10 H 0.5859 -1.7578 0.0000 0
M  V30 11 H 1.7578 1.1719 0.0000 0
M  V30 12 H 3.5156 0.1953 0.0000 0
M  V30 END ATOM
M  V30 BEGIN BOND
M  V30 1 1 1 2
M  V30 2 1 1 7
M  V30 3 1 1 8
M  V30 4 3 2 4
M  V30 5 2 2 5
M  V30 6 3 3 5
M  V30 7 1 3 6
M  V30 8 1 3 11
M  V30 9 1 4 9
M  V30 10 1 5 10
M  V30 11 1 6 12
M  V30 END BOND
M  V30 END CTAB
M  END
>  <ID>
70
$$$$
Structure_71
Score 	 10.0, smilesprid 	smiles	 smilestrue 	smiles	 similartanimoto 	0	 similardice 	0

   12   11  0  0  0  0            999 V3000
M  V30 BEGIN CTAB
M  V30 COUNTS 12 11 0 0 0
M  V30 BEGIN ATOM
M  V30 1 C -1.7578 -0.7812 0.0000 0
M  V30 2 C -0.5859 0.1953 0.0000 0
M  V30 3 C 1.7578 0.1953 0.0000 0
M  V30 4 N -0.7812 1.3672 0.0000 0
M  V30 5 N 0.3906 -0.5859 0.0000 0
M  V30 6 N 2.7344 -0.5859 0.0000 0
M  V30 7 O -3.1250 -0.3906 0.0000 0
M  V30 8 H -1.5625 -1.9531 0.0000 0
M  V30 9 H -1.5625 1.7578 0.0000 0
M  V30 10 H 0.5859 -1.7578 0.0000 0
M  V30 11 H 1.7578 1.1719 0.0000 0
M  V30 12 H 3.5156 0.1953 0.0000 0
M  V30 END ATOM
M  V30 BEGIN BOND
M  V30 1 2 1 2
M  V30 2 1 1 7
M  V30 3 1 1 8
M  V30 4 3 2 4
M  V30 5 2 2 5
M  V30 6 3 3 5
M  V30 7 1 3 6
M  V30 8 1 3 11
M  V30 9 1 4 9
M  V30 10 1 5 10
M  V30 11 1 6 12
M  V30 END BOND
M  V30 END CTAB
M  END
>  <ID>
71
$$$$
Structure_72
Score 	 12.0, smilesprid 	smiles	 smilestrue 	smiles	 similartanimoto 	0	 similardice 	0

   12   11  0  0  0  0            999 V3000
M  V30 BEGIN CTAB
M  V30 COUNTS 12 11 0 0 0
M  V30 BEGIN ATOM
M  V30 1 C -1.7578 -0.7812 0.0000 0
M  V30 2 C -0.5859 0.1953 0.0000 0
M  V30 3 C 1.7578 0.1953 0.0000 0
M  V30 4 N -0.7812 1.3672 0.0000 0
M  V30 5 N 0.3906 -0.5859 0.0000 0
M  V30 6 N 2.7344 -0.5859 0.0000 0
M  V30 7 O -3.1250 -0.3906 0.0000 0
M  V30 8 H -1.5625 -1.9531 0.0000 0
M  V30 9 H -1.5625 1.7578 0.0000 0
M  V30 10 H 0.5859 -1.7578 0.0000 0
M  V30 11 H 1.7578 1.1719 0.0000 0
M  V30 12 H 3.5156 0.1953 0.0000 0
M  V30 END ATOM
M  V30 BEGIN BOND
M  V30 1 3 1 2
M  V30 2 1 1 7
M  V30 3 1 1 8
M  V30 4 3 2 4
M  V30 5 2 2 5
M  V30 6 3 3 5
M  V30 7 1 3 6
M  V30 8 1 3 11
M  V30 9 1 4 9
M  V30 10 1 5 10
M  V30 11 1 6 12
M  V30 END BOND
M  V30 END CTAB
M  END
>  <ID>
72
$$$$
Structure_73
Score 	 10.0, smilesprid 	smiles	 smilestrue 	smiles	 similartanimoto 	0	 similardice 	0

   12   11  0  0  0  0            999 V3000
M  V30 BEGIN CTAB
M  V30 COUNTS 12 11 0 0 0
M  V30 BEGIN ATOM
M  V30 1 C -1.7578 -0.7812 0.0000 0
M  V30 2 C -0.5859 0.1953 0.0000 0
M  V30 3 C 1.7578 0.1953 0.0000 0
M  V30 4 N -0.7812 1.3672 0.0000 0
M  V30 5 N 0.3906 -0.5859 0.0000 0
M  V30 6 N 2.7344 -0.5859 0.0000 0
M  V30 7 O -3.1250 -0.3906 0.0000 0
M  V30 8 H -1.5625 -1.9531 0.0000 0
M  V30 9 H -1.5625 1.7578 0.0000 0
M  V30 10 H 0.5859 -1.7578 0.0000 0
M  V30 11 H 1.7578 1.1719 0.0000 0
M  V30 12 H 3.5156 0.1953 0.0000 0
M  V30 END ATOM
M  V30 BEGIN BOND
M  V30 1 1 1 2
M  V30 2 1 1 7
M  V30 3 1 1 8
M  V30 4 1 2 4
M  V30 5 3 2 5
M  V30 6 3 3 5
M  V30 7 1 3 6
M  V30 8 1 3 11
M  V30 9 1 4 9
M  V30 10 1 5 10
M  V30 11 1 6 12
M  V30 END BOND
M  V30 END CTAB
M  END
>  <ID>
73
$$$$
Structure_74
Score 	 10.0, smilesprid 	smiles	 smilestrue 	smiles	 similartanimoto 	0	 similardice 	0

   12   11  0  0  0  0            999 V3000
M  V30 BEGIN CTAB
M  V30 COUNTS 12 11 0 0 0
M  V30 BEGIN ATOM
M  V30 1 C -1.7578 -0.7812 0.0000 0
M  V30 2 C -0.5859 0.1953 0.0000 0
M  V30 3 C 1.7578 0.1953 0.0000 0
M  V30 4 N -0.7812 1.3672 0.0000 0
M  V30 5 N 0.3906 -0.5859 0.0000 0
M  V30 6 N 2.7344 -0.5859 0.0000 0
M  V30 7 O -3.1250 -0.3906 0.0000 0
M  V30 8 H -1.5625 -1.9531 0.0000 0
M  V30 9 H -1.5625 1.7578 0.0000 0
M  V30 10 H 0.5859 -1.7578 0.0000 0
M  V30 11 H 1.7578 1.1719 0.0000 0
M  V30 12 H 3.5156 0.1953 0.0000 0
M  V30 END ATOM
M  V30 BEGIN BOND
M  V30 1 2 1 2
M  V30 2 1 1 7
M  V30 3 1 1 8
M  V30 4 1 2 4
M  V30 5 3 2 5
M  V30 6 3 3 5
M  V30 7 1 3 6
M  V30 8 1 3 11
M  V30 9 1 4 9
M  V30 10 1 5 10
M  V30 11 1 6 12
M  V30 END BOND
M  V30 END CTAB
M  END
>  <ID>
74
$$$$
Structure_75
Score 	 12.0, smilesprid 	smiles	 smilestrue 	smiles	 similartanimoto 	0	 similardice 	0

   12   11  0  0  0  0            999 V3000
M  V30 BEGIN CTAB
M  V30 COUNTS 12 11 0 0 0
M  V30 BEGIN ATOM
M  V30 1 C -1.7578 -0.7812 0.0000 0
M  V30 2 C -0.5859 0.1953 0.0000 0
M  V30 3 C 1.7578 0.1953 0.0000 0
M  V30 4 N -0.7812 1.3672 0.0000 0
M  V30 5 N 0.3906 -0.5859 0.0000 0
M  V30 6 N 2.7344 -0.5859 0.0000 0
M  V30 7 O -3.1250 -0.3906 0.0000 0
M  V30 8 H -1.5625 -1.9531 0.0000 0
M  V30 9 H -1.5625 1.7578 0.0000 0
M  V30 10 H 0.5859 -1.7578 0.0000 0
M  V30 11 H 1.7578 1.1719 0.0000 0
M  V30 12 H 3.5156 0.1953 0.0000 0
M  V30 END ATOM
M  V30 BEGIN BOND
M  V30 1 3 1 2
M  V30 2 1 1 7
M  V30 3 1 1 8
M  V30 4 1 2 4
M  V30 5 3 2 5
M  V30 6 3 3 5
M  V30 7 1 3 6
M  V30 8 1 3 11
M  V30 9 1 4 9
M  V30 10 1 5 10
M  V30 11 1 6 12
M  V30 END BOND
M  V30 END CTAB
M  END
>  <ID>
75
$$$$
Structure_76
Score 	 10.0, smilesprid 	smiles	 smilestrue 	smiles	 similartanimoto 	0	 similardice 	0

   12   11  0  0  0  0            999 V3000
M  V30 BEGIN CTAB
M  V30 COUNTS 12 11 0 0 0
M  V30 BEGIN ATOM
M  V30 1 C -1.7578 -0.7812 0.0000 0
M  V30 2 C -0.5859 0.1953 0.0000 0
M  V30 3 C 1.7578 0.1953 0.0000 0
M  V30 4 N -0.7812 1.3672 0.0000 0
M  V30 5 N 0.3906 -0.5859 0.0000 0
M  V30 6 N 2.7344 -0.5859 0.0000 0
M  V30 7 O -3.1250 -0.3906 0.0000 0
M  V30 8 H -1.5625 -1.9531 0.0000 0
M  V30 9 H -1.5625 1.7578 0.0000 0
M  V30 10 H 0.5859 -1.7578 0.0000 0
M  V30 11 H 1.7578 1.1719 0.0000 0
M  V30 12 H 3.5156 0.1953 0.0000 0
M  V30 END ATOM
M  V30 BEGIN BOND
M  V30 1 1 1 2
M  V30 2 1 1 7
M  V30 3 1 1 8
M  V30 4 2 2 4
M  V30 5 3 2 5
M  V30 6 3 3 5
M  V30 7 1 3 6
M  V30 8 1 3 11
M  V30 9 1 4 9
M  V30 10 1 5 10
M  V30 11 1 6 12
M  V30 END BOND
M  V30 END CTAB
M  END
>  <ID>
76
$$$$
Structure_77
Score 	 10.0, smilesprid 	smiles	 smilestrue 	smiles	 similartanimoto 	0	 similardice 	0

   12   11  0  0  0  0            999 V3000
M  V30 BEGIN CTAB
M  V30 COUNTS 12 11 0 0 0
M  V30 BEGIN ATOM
M  V30 1 C -1.7578 -0.7812 0.0000 0
M  V30 2 C -0.5859 0.1953 0.0000 0
M  V30 3 C 1.7578 0.1953 0.0000 0
M  V30 4 N -0.7812 1.3672 0.0000 0
M  V30 5 N 0.3906 -0.5859 0.0000 0
M  V30 6 N 2.7344 -0.5859 0.0000 0
M  V30 7 O -3.1250 -0.3906 0.0000 0
M  V30 8 H -1.5625 -1.9531 0.0000 0
M  V30 9 H -1.5625 1.7578 0.0000 0
M  V30 10 H 0.5859 -1.7578 0.0000 0
M  V30 11 H 1.7578 1.1719 0.0000 0
M  V30 12 H 3.5156 0.1953 0.0000 0
M  V30 END ATOM
M  V30 BEGIN BOND
M  V30 1 2 1 2
M  V30 2 1 1 7
M  V30 3 1 1 8
M  V30 4 2 2 4
M  V30 5 3 2 5
M  V30 6 3 3 5
M  V30 7 1 3 6
M  V30 8 1 3 11
M  V30 9 1 4 9
M  V30 10 1 5 10
M  V30 11 1 6 12
M  V30 END BOND
M  V30 END CTAB
M  END
>  <ID>
77
$$$$
Structure_78
Score 	 12.0, smilesprid 	smiles	 smilestrue 	smiles	 similartanimoto 	0	 similardice 	0

   12   11  0  0  0  0            999 V3000
M  V30 BEGIN CTAB
M  V30 COUNTS 12 11 0 0 0
M  V30 BEGIN ATOM
M  V30 1 C -1.7578 -0.7812 0.0000 0
M  V30 2 C -0.5859 0.1953 0.0000 0
M  V30 3 C 1.7578 0.1953 0.0000 0
M  V30 4 N -0.7812 1.3672 0.0000 0
M  V30 5 N 0.3906 -0.5859 0.0000 0
M  V30 6 N 2.7344 -0.5859 0.0000 0
M  V30 7 O -3.1250 -0.3906 0.0000 0
M  V30 8 H -1.5625 -1.9531 0.0000 0
M  V30 9 H -1.5625 1.7578 0.0000 0
M  V30 10 H 0.5859 -1.7578 0.0000 0
M  V30 11 H 1.7578 1.1719 0.0000 0
M  V30 12 H 3.5156 0.1953 0.0000 0
M  V30 END ATOM
M  V30 BEGIN BOND
M  V30 1 3 1 2
M  V30 2 1 1 7
M  V30 3 1 1 8
M  V30 4 2 2 4
M  V30 5 3 2 5
M  V30 6 3 3 5
M  V30 7 1 3 6
M  V30 8 1 3 11
M  V30 9 1 4 9
M  V30 10 1 5 10
M  V30 11 1 6 12
M  V30 END BOND
M  V30 END CTAB
M  END
>  <ID>
78
$$$$
Structure_79
Score 	 12.0, smilesprid 	smiles	 smilestrue 	smiles	 similartanimoto 	0	 similardice 	0

   12   11  0  0  0  0            999 V3000
M  V30 BEGIN CTAB
M  V30 COUNTS 12 11 0 0 0
M  V30 BEGIN ATOM
M  V30 1 C -1.7578 -0.7812 0.0000 0
M  V30 2 C -0.5859 0.1953 0.0000 0
M  V30 3 C 1.7578 0.1953 0.0000 0
M  V30 4 N -0.7812 1.3672 0.0000 0
M  V30 5 N 0.3906 -0.5859 0.0000 0
M  V30 6 N 2.7344 -0.5859 0.0000 0
M  V30 7 O -3.1250 -0.3906 0.0000 0
M  V30 8 H -1.5625 -1.9531 0.0000 0
M  V30 9 H -1.5625 1.7578 0.0000 0
M  V30 10 H 0.5859 -1.7578 0.0000 0
M  V30 11 H 1.7578 1.1719 0.0000 0
M  V30 12 H 3.5156 0.1953 0.0000 0
M  V30 END ATOM
M  V30 BEGIN BOND
M  V30 1 1 1 2
M  V30 2 1 1 7
M  V30 3 1 1 8
M  V30 4 3 2 4
M  V30 5 3 2 5
M  V30 6 3 3 5
M  V30 7 1 3 6
M  V30 8 1 3 11
M  V30 9 1 4 9
M  V30 10 1 5 10
M  V30 11 1 6 12
M  V30 END BOND
M  V30 END CTAB
M  END
>  <ID>
79
$$$$
Structure_80
Score 	 12.0, smilesprid 	smiles	 smilestrue 	smiles	 similartanimoto 	0	 similardice 	0

   12   11  0  0  0  0            999 V3000
M  V30 BEGIN CTAB
M  V30 COUNTS 12 11 0 0 0
M  V30 BEGIN ATOM
M  V30 1 C -1.7578 -0.7812 0.0000 0
M  V30 2 C -0.5859 0.1953 0.0000 0
M  V30 3 C 1.7578 0.1953 0.0000 0
M  V30 4 N -0.7812 1.3672 0.0000 0
M  V30 5 N 0.3906 -0.5859 0.0000 0
M  V30 6 N 2.7344 -0.5859 0.0000 0
M  V30 7 O -3.1250 -0.3906 0.0000 0
M  V30 8 H -1.5625 -1.9531 0.0000 0
M  V30 9 H -1.5625 1.7578 0.0000 0
M  V30 10 H 0.5859 -1.7578 0.0000 0
M  V30 11 H 1.7578 1.1719 0.0000 0
M  V30 12 H 3.5156 0.1953 0.0000 0
M  V30 END ATOM
M  V30 BEGIN BOND
M  V30 1 2 1 2
M  V30 2 1 1 7
M  V30 3 1 1 8
M  V30 4 3 2 4
M  V30 5 3 2 5
M  V30 6 3 3 5
M  V30 7 1 3 6
M  V30 8 1 3 11
M  V30 9 1 4 9
M  V30 10 1 5 10
M  V30 11 1 6 12
M  V30 END BOND
M  V30 END CTAB
M  END
>  <ID>
80
$$$$
Structure_81
Score 	 14.0, smilesprid 	smiles	 smilestrue 	smiles	 similartanimoto 	0	 similardice 	0

   12   11  0  0  0  0            999 V3000
M  V30 BEGIN CTAB
M  V30 COUNTS 12 11 0 0 0
M  V30 BEGIN ATOM
M  V30 1 C -1.7578 -0.7812 0.0000 0
M  V30 2 C -0.5859 0.1953 0.0000 0
M  V30 3 C 1.7578 0.1953 0.0000 0
M  V30 4 N -0.7812 1.3672 0.0000 0
M  V30 5 N 0.3906 -0.5859 0.0000 0
M  V30 6 N 2.7344 -0.5859 0.0000 0
M  V30 7 O -3.1250 -0.3906 0.0000 0
M  V30 8 H -1.5625 -1.9531 0.0000 0
M  V30 9 H -1.5625 1.7578 0.0000 0
M  V30 10 H 0.5859 -1.7578 0.0000 0
M  V30 11 H 1.7578 1.1719 0.0000 0
M  V30 12 H 3.5156 0.1953 0.0000 0
M  V30 END ATOM
M  V30 BEGIN BOND
M  V30 1 3 1 2
M  V30 2 1 1 7
M  V30 3 1 1 8
M  V30 4 3 2 4
M  V30 5 3 2 5
M  V30 6 3 3 5
M  V30 7 1 3 6
M  V30 8 1 3 11
M  V30 9 1 4 9
M  V30 10 1 5 10
M  V30 11 1 6 12
M  V30 END BOND
M  V30 END CTAB
M  END
>  <ID>
81
$$$$
Structure_82
Score 	 4.0, smilesprid 	smiles	 smilestrue 	smiles	 similartanimoto 	0	 similardice 	0

   12   11  0  0  0  0            999 V3000
M  V30 BEGIN CTAB
M  V30 COUNTS 12 11 0 0 0
M  V30 BEGIN ATOM
M  V30 1 C -1.7578 -0.7812 0.0000 0
M  V30 2 C -0.5859 0.1953 0.0000 0
M  V30 3 C 1.7578 0.1953 0.0000 0
M  V30 4 N -0.7812 1.3672 0.0000 0
M  V30 5 N 0.3906 -0.5859 0.0000 0
M  V30 6 N 2.7344 -0.5859 0.0000 0
M  V30 7 O -3.1250 -0.3906 0.0000 0
M  V30 8 H -1.5625 -1.9531 0.0000 0
M  V30 9 H -1.5625 1.7578 0.0000 0
M  V30 10 H 0.5859 -1.7578 0.0000 0
M  V30 11 H 1.7578 1.1719 0.0000 0
M  V30 12 H 3.5156 0.1953 0.0000 0
M  V30 END ATOM
M  V30 BEGIN BOND
M  V30 1 1 1 2
M  V30 2 1 1 7
M  V30 3 1 1 8
M  V30 4 1 2 4
M  V30 5 1 2 5
M  V30 6 1 3 5
M  V30 7 2 3 6
M  V30 8 1 3 11
M  V30 9 1 4 9
M  V30 10 1 5 10
M  V30 11 1 6 12
M  V30 END BOND
M  V30 END CTAB
M  END
>  <ID>
82
$$$$
Structure_83
Score 	 2.0, smilesprid 	smiles	 smilestrue 	smiles	 similartanimoto 	0	 similardice 	0

   12   11  0  0  0  0            999 V3000
M  V30 BEGIN CTAB
M  V30 COUNTS 12 11 0 0 0
M  V30 BEGIN ATOM
M  V30 1 C -1.7578 -0.7812 0.0000 0
M  V30 2 C -0.5859 0.1953 0.0000 0
M  V30 3 C 1.7578 0.1953 0.0000 0
M  V30 4 N -0.7812 1.3672 0.0000 0
M  V30 5 N 0.3906 -0.5859 0.0000 0
M  V30 6 N 2.7344 -0.5859 0.0000 0
M  V30 7 O -3.1250 -0.3906 0.0000 0
M  V30 8 H -1.5625 -1.9531 0.0000 0
M  V30 9 H -1.5625 1.7578 0.0000 0
M  V30 10 H 0.5859 -1.7578 0.0000 0
M  V30 11 H 1.7578 1.1719 0.0000 0
M  V30 12 H 3.5156 0.1953 0.0000 0
M  V30 END ATOM
M  V30 BEGIN BOND
M  V30 1 2 1 2
M  V30 2 1 1 7
M  V30 3 1 1 8
M  V30 4 1 2 4
M  V30 5 1 2 5
M  V30 6 1 3 5
M  V30 7 2 3 6
M  V30 8 1 3 11
M  V30 9 1 4 9
M  V30 10 1 5 10
M  V30 11 1 6 12
M  V30 END BOND
M  V30 END CTAB
M  END
>  <ID>
83
$$$$
Structure_84
Score 	 4.0, smilesprid 	smiles	 smilestrue 	smiles	 similartanimoto 	0	 similardice 	0

   12   11  0  0  0  0            999 V3000
M  V30 BEGIN CTAB
M  V30 COUNTS 12 11 0 0 0
M  V30 BEGIN ATOM
M  V30 1 C -1.7578 -0.7812 0.0000 0
M  V30 2 C -0.5859 0.1953 0.0000 0
M  V30 3 C 1.7578 0.1953 0.0000 0
M  V30 4 N -0.7812 1.3672 0.0000 0
M  V30 5 N 0.3906 -0.5859 0.0000 0
M  V30 6 N 2.7344 -0.5859 0.0000 0
M  V30 7 O -3.1250 -0.3906 0.0000 0
M  V30 8 H -1.5625 -1.9531 0.0000 0
M  V30 9 H -1.5625 1.7578 0.0000 0
M  V30 10 H 0.5859 -1.7578 0.0000 0
M  V30 11 H 1.7578 1.1719 0.0000 0
M  V30 12 H 3.5156 0.1953 0.0000 0
M  V30 END ATOM
M  V30 BEGIN BOND
M  V30 1 3 1 2
M  V30 2 1 1 7
M  V30 3 1 1 8
M  V30 4 1 2 4
M  V30 5 1 2 5
M  V30 6 1 3 5
M  V30 7 2 3 6
M  V30 8 1 3 11
M  V30 9 1 4 9
M  V30 10 1 5 10
M  V30 11 1 6 12
M  V30 END BOND
M  V30 END CTAB
M  END
>  <ID>
84
$$$$
Structure_85
Score 	 2.0, smilesprid 	smiles	 smilestrue 	smiles	 similartanimoto 	0	 similardice 	0

   12   11  0  0  0  0            999 V3000
M  V30 BEGIN CTAB
M  V30 COUNTS 12 11 0 0 0
M  V30 BEGIN ATOM
M  V30 1 C -1.7578 -0.7812 0.0000 0
M  V30 2 C -0.5859 0.1953 0.0000 0
M  V30 3 C 1.7578 0.1953 0.0000 0
M  V30 4 N -0.7812 1.3672 0.0000 0
M  V30 5 N 0.3906 -0.5859 0.0000 0
M  V30 6 N 2.7344 -0.5859 0.0000 0
M  V30 7 O -3.1250 -0.3906 0.0000 0
M  V30 8 H -1.5625 -1.9531 0.0000 0
M  V30 9 H -1.5625 1.7578 0.0000 0
M  V30 10 H 0.5859 -1.7578 0.0000 0
M  V30 11 H 1.7578 1.1719 0.0000 0
M  V30 12 H 3.5156 0.1953 0.0000 0
M  V30 END ATOM
M  V30 BEGIN BOND
M  V30 1 1 1 2
M  V30 2 1 1 7
M  V30 3 1 1 8
M  V30 4 2 2 4
M  V30 5 1 2 5
M  V30 6 1 3 5
M  V30 7 2 3 6
M  V30 8 1 3 11
M  V30 9 1 4 9
M  V30 10 1 5 10
M  V30 11 1 6 12
M  V30 END BOND
M  V30 END CTAB
M  END
>  <ID>
85
$$$$
Structure_86
Score 	 2.0, smilesprid 	smiles	 smilestrue 	smiles	 similartanimoto 	0	 similardice 	0

   12   11  0  0  0  0            999 V3000
M  V30 BEGIN CTAB
M  V30 COUNTS 12 11 0 0 0
M  V30 BEGIN ATOM
M  V30 1 C -1.7578 -0.7812 0.0000 0
M  V30 2 C -0.5859 0.1953 0.0000 0
M  V30 3 C 1.7578 0.1953 0.0000 0
M  V30 4 N -0.7812 1.3672 0.0000 0
M  V30 5 N 0.3906 -0.5859 0.0000 0
M  V30 6 N 2.7344 -0.5859 0.0000 0
M  V30 7 O -3.1250 -0.3906 0.0000 0
M  V30 8 H -1.5625 -1.9531 0.0000 0
M  V30 9 H -1.5625 1.7578 0.0000 0
M  V30 10 H 0.5859 -1.7578 0.0000 0
M  V30 11 H 1.7578 1.1719 0.0000 0
M  V30 12 H 3.5156 0.1953 0.0000 0
M  V30 END ATOM
M  V30 BEGIN BOND
M  V30 1 2 1 2
M  V30 2 1 1 7
M  V30 3 1 1 8
M  V30 4 2 2 4
M  V30 5 1 2 5
M  V30 6 1 3 5
M  V30 7 2 3 6
M  V30 8 1 3 11
M  V30 9 1 4 9
M  V30 10 1 5 10
M  V30 11 1 6 12
M  V30 END BOND
M  V30 END CTAB
M  END
>  <ID>
86
$$$$
Structure_87
Score 	 4.0, smilesprid 	smiles	 smilestrue 	smiles	 similartanimoto 	0	 similardice 	0

   12   11  0  0  0  0            999 V3000
M  V30 BEGIN CTAB
M  V30 COUNTS 12 11 0 0 0
M  V30 BEGIN ATOM
M  V30 1 C -1.7578 -0.7812 0.0000 0
M  V30 2 C -0.5859 0.1953 0.0000 0
M  V30 3 C 1.7578 0.1953 0.0000 0
M  V30 4 N -0.7812 1.3672 0.0000 0
M  V30 5 N 0.3906 -0.5859 0.0000 0
M  V30 6 N 2.7344 -0.5859 0.0000 0
M  V30 7 O -3.1250 -0.3906 0.0000 0
M  V30 8 H -1.5625 -1.9531 0.0000 0
M  V30 9 H -1.5625 1.7578 0.0000 0
M  V30 10 H 0.5859 -1.7578 0.0000 0
M  V30 11 H 1.7578 1.1719 0.0000 0
M  V30 12 H 3.5156 0.1953 0.0000 0
M  V30 END ATOM
M  V30 BEGIN BOND
M  V30 1 3 1 2
M  V30 2 1 1 7
M  V30 3 1 1 8
M  V30 4 2 2 4
M  V30 5 1 2 5
M  V30 6 1 3 5
M  V30 7 2 3 6
M  V30 8 1 3 11
M  V30 9 1 4 9
M  V30 10 1 5 10
M  V30 11 1 6 12
M  V30 END BOND
M  V30 END CTAB
M  END
>  <ID>
87
$$$$
Structure_88
Score 	 4.0, smilesprid 	smiles	 smilestrue 	smiles	 similartanimoto 	0	 similardice 	0

   12   11  0  0  0  0            999 V3000
M  V30 BEGIN CTAB
M  V30 COUNTS 12 11 0 0 0
M  V30 BEGIN ATOM
M  V30 1 C -1.7578 -0.7812 0.0000 0
M  V30 2 C -0.5859 0.1953 0.0000 0
M  V30 3 C 1.7578 0.1953 0.0000 0
M  V30 4 N -0.7812 1.3672 0.0000 0
M  V30 5 N 0.3906 -0.5859 0.0000 0
M  V30 6 N 2.7344 -0.5859 0.0000 0
M  V30 7 O -3.1250 -0.3906 0.0000 0
M  V30 8 H -1.5625 -1.9531 0.0000 0
M  V30 9 H -1.5625 1.7578 0.0000 0
M  V30 10 H 0.5859 -1.7578 0.0000 0
M  V30 11 H 1.7578 1.1719 0.0000 0
M  V30 12 H 3.5156 0.1953 0.0000 0
M  V30 END ATOM
M  V30 BEGIN BOND
M  V30 1 1 1 2
M  V30 2 1 1 7
M  V30 3 1 1 8
M  V30 4 3 2 4
M  V30 5 1 2 5
M  V30 6 1 3 5
M  V30 7 2 3 6
M  V30 8 1 3 11
M  V30 9 1 4 9
M  V30 10 1 5 10
M  V30 11 1 6 12
M  V30 END BOND
M  V30 END CTAB
M  END
>  <ID>
88
$$$$
Structure_89
Score 	 4.0, smilesprid 	smiles	 smilestrue 	smiles	 similartanimoto 	0	 similardice 	0

   12   11  0  0  0  0            999 V3000
M  V30 BEGIN CTAB
M  V30 COUNTS 12 11 0 0 0
M  V30 BEGIN ATOM
M  V30 1 C -1.7578 -0.7812 0.0000 0
M  V30 2 C -0.5859 0.1953 0.0000 0
M  V30 3 C 1.7578 0.1953 0.0000 0
M  V30 4 N -0.7812 1.3672 0.0000 0
M  V30 5 N 0.3906 -0.5859 0.0000 0
M  V30 6 N 2.7344 -0.5859 0.0000 0
M  V30 7 O -3.1250 -0.3906 0.0000 0
M  V30 8 H -1.5625 -1.9531 0.0000 0
M  V30 9 H -1.5625 1.7578 0.0000 0
M  V30 10 H 0.5859 -1.7578 0.0000 0
M  V30 11 H 1.7578 1.1719 0.0000 0
M  V30 12 H 3.5156 0.1953 0.0000 0
M  V30 END ATOM
M  V30 BEGIN BOND
M  V30 1 2 1 2
M  V30 2 1 1 7
M  V30 3 1 1 8
M  V30 4 3 2 4
M  V30 5 1 2 5
M  V30 6 1 3 5
M  V30 7 2 3 6
M  V30 8 1 3 11
M  V30 9 1 4 9
M  V30 10 1 5 10
M  V30 11 1 6 12
M  V30 END BOND
M  V30 END CTAB
M  END
>  <ID>
89
$$$$
Structure_90
Score 	 6.0, smilesprid 	smiles	 smilestrue 	smiles	 similartanimoto 	0	 similardice 	0

   12   11  0  0  0  0            999 V3000
M  V30 BEGIN CTAB
M  V30 COUNTS 12 11 0 0 0
M  V30 BEGIN ATOM
M  V30 1 C -1.7578 -0.7812 0.0000 0
M  V30 2 C -0.5859 0.1953 0.0000 0
M  V30 3 C 1.7578 0.1953 0.0000 0
M  V30 4 N -0.7812 1.3672 0.0000 0
M  V30 5 N 0.3906 -0.5859 0.0000 0
M  V30 6 N 2.7344 -0.5859 0.0000 0
M  V30 7 O -3.1250 -0.3906 0.0000 0
M  V30 8 H -1.5625 -1.9531 0.0000 0
M  V30 9 H -1.5625 1.7578 0.0000 0
M  V30 10 H 0.5859 -1.7578 0.0000 0
M  V30 11 H 1.7578 1.1719 0.0000 0
M  V30 12 H 3.5156 0.1953 0.0000 0
M  V30 END ATOM
M  V30 BEGIN BOND
M  V30 1 3 1 2
M  V30 2 1 1 7
M  V30 3 1 1 8
M  V30 4 3 2 4
M  V30 5 1 2 5
M  V30 6 1 3 5
M  V30 7 2 3 6
M  V30 8 1 3 11
M  V30 9 1 4 9
M  V30 10 1 5 10
M  V30 11 1 6 12
M  V30 END BOND
M  V30 END CTAB
M  END
>  <ID>
90
$$$$
Structure_91
Score 	 4.0, smilesprid 	smiles	 smilestrue 	smiles	 similartanimoto 	0	 similardice 	0

   12   11  0  0  0  0            999 V3000
M  V30 BEGIN CTAB
M  V30 COUNTS 12 11 0 0 0
M  V30 BEGIN ATOM
M  V30 1 C -1.7578 -0.7812 0.0000 0
M  V30 2 C -0.5859 0.1953 0.0000 0
M  V30 3 C 1.7578 0.1953 0.0000 0
M  V30 4 N -0.7812 1.3672 0.0000 0
M  V30 5 N 0.3906 -0.5859 0.0000 0
M  V30 6 N 2.7344 -0.5859 0.0000 0
M  V30 7 O -3.1250 -0.3906 0.0000 0
M  V30 8 H -1.5625 -1.9531 0.0000 0
M  V30 9 H -1.5625 1.7578 0.0000 0
M  V30 10 H 0.5859 -1.7578 0.0000 0
M  V30 11 H 1.7578 1.1719 0.0000 0
M  V30 12 H 3.5156 0.1953 0.0000 0
M  V30 END ATOM
M  V30 BEGIN BOND
M  V30 1 1 1 2
M  V30 2 1 1 7
M  V30 3 1 1 8
M  V30 4 1 2 4
M  V30 5 2 2 5
M  V30 6 1 3 5
M  V30 7 2 3 6
M  V30 8 1 3 11
M  V30 9 1 4 9
M  V30 10 1 5 10
M  V30 11 1 6 12
M  V30 END BOND
M  V30 END CTAB
M  END
>  <ID>
91
$$$$
Structure_92
Score 	 4.0, smilesprid 	smiles	 smilestrue 	smiles	 similartanimoto 	0	 similardice 	0

   12   11  0  0  0  0            999 V3000
M  V30 BEGIN CTAB
M  V30 COUNTS 12 11 0 0 0
M  V30 BEGIN ATOM
M  V30 1 C -1.7578 -0.7812 0.0000 0
M  V30 2 C -0.5859 0.1953 0.0000 0
M  V30 3 C 1.7578 0.1953 0.0000 0
M  V30 4 N -0.7812 1.3672 0.0000 0
M  V30 5 N 0.3906 -0.5859 0.0000 0
M  V30 6 N 2.7344 -0.5859 0.0000 0
M  V30 7 O -3.1250 -0.3906 0.0000 0
M  V30 8 H -1.5625 -1.9531 0.0000 0
M  V30 9 H -1.5625 1.7578 0.0000 0
M  V30 10 H 0.5859 -1.7578 0.0000 0
M  V30 11 H 1.7578 1.1719 0.0000 0
M  V30 12 H 3.5156 0.1953 0.0000 0
M  V30 END ATOM
M  V30 BEGIN BOND
M  V30 1 2 1 2
M  V30 2 1 1 7
M  V30 3 1 1 8
M  V30 4 1 2 4
M  V30 5 2 2 5
M  V30 6 1 3 5
M  V30 7 2 3 6
M  V30 8 1 3 11
M  V30 9 1 4 9
M  V30 10 1 5 10
M  V30 11 1 6 12
M  V30 END BOND
M  V30 END CTAB
M  END
>  <ID>
92
$$$$
Structure_93
Score 	 6.0, smilesprid 	smiles	 smilestrue 	smiles	 similartanimoto 	0	 similardice 	0

   12   11  0  0  0  0            999 V3000
M  V30 BEGIN CTAB
M  V30 COUNTS 12 11 0 0 0
M  V30 BEGIN ATOM
M  V30 1 C -1.7578 -0.7812 0.0000 0
M  V30 2 C -0.5859 0.1953 0.0000 0
M  V30 3 C 1.7578 0.1953 0.0000 0
M  V30 4 N -0.7812 1.3672 0.0000 0
M  V30 5 N 0.3906 -0.5859 0.0000 0
M  V30 6 N 2.7344 -0.5859 0.0000 0
M  V30 7 O -3.1250 -0.3906 0.0000 0
M  V30 8 H -1.5625 -1.9531 0.0000 0
M  V30 9 H -1.5625 1.7578 0.0000 0
M  V30 10 H 0.5859 -1.7578 0.0000 0
M  V30 11 H 1.7578 1.1719 0.0000 0
M  V30 12 H 3.5156 0.1953 0.0000 0
M  V30 END ATOM
M  V30 BEGIN BOND
M  V30 1 3 1 2
M  V30 2 1 1 7
M  V30 3 1 1 8
M  V30 4 1 2 4
M  V30 5 2 2 5
M  V30 6 1 3 5
M  V30 7 2 3 6
M  V30 8 1 3 11
M  V30 9 1 4 9
M  V30 10 1 5 10
M  V30 11 1 6 12
M  V30 END BOND
M  V30 END CTAB
M  END
>  <ID>
93
$$$$
Structure_94
Score 	 4.0, smilesprid 	smiles	 smilestrue 	smiles	 similartanimoto 	0	 similardice 	0

   12   11  0  0  0  0            999 V3000
M  V30 BEGIN CTAB
M  V30 COUNTS 12 11 0 0 0
M  V30 BEGIN ATOM
M  V30 1 C -1.7578 -0.7812 0.0000 0
M  V30 2 C -0.5859 0.1953 0.0000 0
M  V30 3 C 1.7578 0.1953 0.0000 0
M  V30 4 N -0.7812 1.3672 0.0000 0
M  V30 5 N 0.3906 -0.5859 0.0000 0
M  V30 6 N 2.7344 -0.5859 0.0000 0
M  V30 7 O -3.1250 -0.3906 0.0000 0
M  V30 8 H -1.5625 -1.9531 0.0000 0
M  V30 9 H -1.5625 1.7578 0.0000 0
M  V30 10 H 0.5859 -1.7578 0.0000 0
M  V30 11 H 1.7578 1.1719 0.0000 0
M  V30 12 H 3.5156 0.1953 0.0000 0
M  V30 END ATOM
M  V30 BEGIN BOND
M  V30 1 1 1 2
M  V30 2 1 1 7
M  V30 3 1 1 8
M  V30 4 2 2 4
M  V30 5 2 2 5
M  V30 6 1 3 5
M  V30 7 2 3 6
M  V30 8 1 3 11
M  V30 9 1 4 9
M  V30 10 1 5 10
M  V30 11 1 6 12
M  V30 END BOND
M  V30 END CTAB
M  END
>  <ID>
94
$$$$
Structure_95
Score 	 4.0, smilesprid 	smiles	 smilestrue 	smiles	 similartanimoto 	0	 similardice 	0

   12   11  0  0  0  0            999 V3000
M  V30 BEGIN CTAB
M  V30 COUNTS 12 11 0 0 0
M  V30 BEGIN ATOM
M  V30 1 C -1.7578 -0.7812 0.0000 0
M  V30 2 C -0.5859 0.1953 0.0000 0
M  V30 3 C 1.7578 0.1953 0.0000 0
M  V30 4 N -0.7812 1.3672 0.0000 0
M  V30 5 N 0.3906 -0.5859 0.0000 0
M  V30 6 N 2.7344 -0.5859 0.0000 0
M  V30 7 O -3.1250 -0.3906 0.0000 0
M  V30 8 H -1.5625 -1.9531 0.0000 0
M  V30 9 H -1.5625 1.7578 0.0000 0
M  V30 10 H 0.5859 -1.7578 0.0000 0
M  V30 11 H 1.7578 1.1719 0.0000 0
M  V30 12 H 3.5156 0.1953 0.0000 0
M  V30 END ATOM
M  V30 BEGIN BOND
M  V30 1 2 1 2
M  V30 2 1 1 7
M  V30 3 1 1 8
M  V30 4 2 2 4
M  V30 5 2 2 5
M  V30 6 1 3 5
M  V30 7 2 3 6
M  V30 8 1 3 11
M  V30 9 1 4 9
M  V30 10 1 5 10
M  V30 11 1 6 12
M  V30 END BOND
M  V30 END CTAB
M  END
>  <ID>
95
$$$$
Structure_96
Score 	 6.0, smilesprid 	smiles	 smilestrue 	smiles	 similartanimoto 	0	 similardice 	0

   12   11  0  0  0  0            999 V3000
M  V30 BEGIN CTAB
M  V30 COUNTS 12 11 0 0 0
M  V30 BEGIN ATOM
M  V30 1 C -1.7578 -0.7812 0.0000 0
M  V30 2 C -0.5859 0.1953 0.0000 0
M  V30 3 C 1.7578 0.1953 0.0000 0
M  V30 4 N -0.7812 1.3672 0.0000 0
M  V30 5 N 0.3906 -0.5859 0.0000 0
M  V30 6 N 2.7344 -0.5859 0.0000 0
M  V30 7 O -3.1250 -0.3906 0.0000 0
M  V30 8 H -1.5625 -1.9531 0.0000 0
M  V30 9 H -1.5625 1.7578 0.0000 0
M  V30 10 H 0.5859 -1.7578 0.0000 0
M  V30 11 H 1.7578 1.1719 0.0000 0
M  V30 12 H 3.5156 0.1953 0.0000 0
M  V30 END ATOM
M  V30 BEGIN BOND
M  V30 1 3 1 2
M  V30 2 1 1 7
M  V30 3 1 1 8
M  V30 4 2 2 4
M  V30 5 2 2 5
M  V30 6 1 3 5
M  V30 7 2 3 6
M  V30 8 1 3 11
M  V30 9 1 4 9
M  V30 10 1 5 10
M  V30 11 1 6 12
M  V30 END BOND
M  V30 END CTAB
M  END
>  <ID>
96
$$$$
Structure_97
Score 	 6.0, smilesprid 	smiles	 smilestrue 	smiles	 similartanimoto 	0	 similardice 	0

   12   11  0  0  0  0            999 V3000
M  V30 BEGIN CTAB
M  V30 COUNTS 12 11 0 0 0
M  V30 BEGIN ATOM
M  V30 1 C -1.7578 -0.7812 0.0000 0
M  V30 2 C -0.5859 0.1953 0.0000 0
M  V30 3 C 1.7578 0.1953 0.0000 0
M  V30 4 N -0.7812 1.3672 0.0000 0
M  V30 5 N 0.3906 -0.5859 0.0000 0
M  V30 6 N 2.7344 -0.5859 0.0000 0
M  V30 7 O -3.1250 -0.3906 0.0000 0
M  V30 8 H -1.5625 -1.9531 0.0000 0
M  V30 9 H -1.5625 1.7578 0.0000 0
M  V30 10 H 0.5859 -1.7578 0.0000 0
M  V30 11 H 1.7578 1.1719 0.0000 0
M  V30 12 H 3.5156 0.1953 0.0000 0
M  V30 END ATOM
M  V30 BEGIN BOND
M  V30 1 1 1 2
M  V30 2 1 1 7
M  V30 3 1 1 8
M  V30 4 3 2 4
M  V30 5 2 2 5
M  V30 6 1 3 5
M  V30 7 2 3 6
M  V30 8 1 3 11
M  V30 9 1 4 9
M  V30 10 1 5 10
M  V30 11 1 6 12
M  V30 END BOND
M  V30 END CTAB
M  END
>  <ID>
97
$$$$
Structure_98
Score 	 6.0, smilesprid 	smiles	 smilestrue 	smiles	 similartanimoto 	0	 similardice 	0

   12   11  0  0  0  0            999 V3000
M  V30 BEGIN CTAB
M  V30 COUNTS 12 11 0 0 0
M  V30 BEGIN ATOM
M  V30 1 C -1.7578 -0.7812 0.0000 0
M  V30 2 C -0.5859 0.1953 0.0000 0
M  V30 3 C 1.7578 0.1953 0.0000 0
M  V30 4 N -0.7812 1.3672 0.0000 0
M  V30 5 N 0.3906 -0.5859 0.0000 0
M  V30 6 N 2.7344 -0.5859 0.0000 0
M  V30 7 O -3.1250 -0.3906 0.0000 0
M  V30 8 H -1.5625 -1.9531 0.0000 0
M  V30 9 H -1.5625 1.7578 0.0000 0
M  V30 10 H 0.5859 -1.7578 0.0000 0
M  V30 11 H 1.7578 1.1719 0.0000 0
M  V30 12 H 3.5156 0.1953 0.0000 0
M  V30 END ATOM
M  V30 BEGIN BOND
M  V30 1 2 1 2
M  V30 2 1 1 7
M  V30 3 1 1 8
M  V30 4 3 2 4
M  V30 5 2 2 5
M  V30 6 1 3 5
M  V30 7 2 3 6
M  V30 8 1 3 11
M  V30 9 1 4 9
M  V30 10 1 5 10
M  V30 11 1 6 12
M  V30 END BOND
M  V30 END CTAB
M  END
>  <ID>
98
$$$$
Structure_99
Score 	 8.0, smilesprid 	smiles	 smilestrue 	smiles	 similartanimoto 	0	 similardice 	0

   12   11  0  0  0  0            999 V3000
M  V30 BEGIN CTAB
M  V30 COUNTS 12 11 0 0 0
M  V30 BEGIN ATOM
M  V30 1 C -1.7578 -0.7812 0.0000 0
M  V30 2 C -0.5859 0.1953 0.0000 0
M  V30 3 C 1.7578 0.1953 0.0000 0
M  V30 4 N -0.7812 1.3672 0.0000 0
M  V30 5 N 0.3906 -0.5859 0.0000 0
M  V30 6 N 2.7344 -0.5859 0.0000 0
M  V30 7 O -3.1250 -0.3906 0.0000 0
M  V30 8 H -1.5625 -1.9531 0.0000 0
M  V30 9 H -1.5625 1.7578 0.0000 0
M  V30 10 H 0.5859 -1.7578 0.0000 0
M  V30 11 H 1.7578 1.1719 0.0000 0
M  V30 12 H 3.5156 0.1953 0.0000 0
M  V30 END ATOM
M  V30 BEGIN BOND
M  V30 1 3 1 2
M  V30 2 1 1 7
M  V30 3 1 1 8
M  V30 4 3 2 4
M  V30 5 2 2 5
M  V30 6 1 3 5
M  V30 7 2 3 6
M  V30 8 1 3 11
M  V30 9 1 4 9
M  V30 10 1 5 10
M  V30 11 1 6 12
M  V30 END BOND
M  V30 END CTAB
M  END
>  <ID>
99
$$$$
Structure_100
Score 	 6.0, smilesprid 	smiles	 smilestrue 	smiles	 similartanimoto 	0	 similardice 	0

   12   11  0  0  0  0            999 V3000
M  V30 BEGIN CTAB
M  V30 COUNTS 12 11 0 0 0
M  V30 BEGIN ATOM
M  V30 1 C -1.7578 -0.7812 0.0000 0
M  V30 2 C -0.5859 0.1953 0.0000 0
M  V30 3 C 1.7578 0.1953 0.0000 0
M  V30 4 N -0.7812 1.3672 0.0000 0
M  V30 5 N 0.3906 -0.5859 0.0000 0
M  V30 6 N 2.7344 -0.5859 0.0000 0
M  V30 7 O -3.1250 -0.3906 0.0000 0
M  V30 8 H -1.5625 -1.9531 0.0000 0
M  V30 9 H -1.5625 1.7578 0.0000 0
M  V30 10 H 0.5859 -1.7578 0.0000 0
M  V30 11 H 1.7578 1.1719 0.0000 0
M  V30 12 H 3.5156 0.1953 0.0000 0
M  V30 END ATOM
M  V30 BEGIN BOND
M  V30 1 1 1 2
M  V30 2 1 1 7
M  V30 3 1 1 8
M  V30 4 1 2 4
M  V30 5 3 2 5
M  V30 6 1 3 5
M  V30 7 2 3 6
M  V30 8 1 3 11
M  V30 9 1 4 9
M  V30 10 1 5 10
M  V30 11 1 6 12
M  V30 END BOND
M  V30 END CTAB
M  END
>  <ID>
100
$$$$
Structure_101
Score 	 6.0, smilesprid 	smiles	 smilestrue 	smiles	 similartanimoto 	0	 similardice 	0

   12   11  0  0  0  0            999 V3000
M  V30 BEGIN CTAB
M  V30 COUNTS 12 11 0 0 0
M  V30 BEGIN ATOM
M  V30 1 C -1.7578 -0.7812 0.0000 0
M  V30 2 C -0.5859 0.1953 0.0000 0
M  V30 3 C 1.7578 0.1953 0.0000 0
M  V30 4 N -0.7812 1.3672 0.0000 0
M  V30 5 N 0.3906 -0.5859 0.0000 0
M  V30 6 N 2.7344 -0.5859 0.0000 0
M  V30 7 O -3.1250 -0.3906 0.0000 0
M  V30 8 H -1.5625 -1.9531 0.0000 0
M  V30 9 H -1.5625 1.7578 0.0000 0
M  V30 10 H 0.5859 -1.7578 0.0000 0
M  V30 11 H 1.7578 1.1719 0.0000 0
M  V30 12 H 3.5156 0.1953 0.0000 0
M  V30 END ATOM
M  V30 BEGIN BOND
M  V30 1 2 1 2
M  V30 2 1 1 7
M  V30 3 1 1 8
M  V30 4 1 2 4
M  V30 5 3 2 5
M  V30 6 1 3 5
M  V30 7 2 3 6
M  V30 8 1 3 11
M  V30 9 1 4 9
M  V30 10 1 5 10
M  V30 11 1 6 12
M  V30 END BOND
M  V30 END CTAB
M  END
>  <ID>
101
$$$$
Structure_102
Score 	 8.0, smilesprid 	smiles	 smilestrue 	smiles	 similartanimoto 	0	 similardice 	0

   12   11  0  0  0  0            999 V3000
M  V30 BEGIN CTAB
M  V30 COUNTS 12 11 0 0 0
M  V30 BEGIN ATOM
M  V30 1 C -1.7578 -0.7812 0.0000 0
M  V30 2 C -0.5859 0.1953 0.0000 0
M  V30 3 C 1.7578 0.1953 0.0000 0
M  V30 4 N -0.7812 1.3672 0.0000 0
M  V30 5 N 0.3906 -0.5859 0.0000 0
M  V30 6 N 2.7344 -0.5859 0.0000 0
M  V30 7 O -3.1250 -0.3906 0.0000 0
M  V30 8 H -1.5625 -1.9531 0.0000 0
M  V30 9 H -1.5625 1.7578 0.0000 0
M  V30 10 H 0.5859 -1.7578 0.0000 0
M  V30 11 H 1.7578 1.1719 0.0000 0
M  V30 12 H 3.5156 0.1953 0.0000 0
M  V30 END ATOM
M  V30 BEGIN BOND
M  V30 1 3 1 2
M  V30 2 1 1 7
M  V30 3 1 1 8
M  V30 4 1 2 4
M  V30 5 3 2 5
M  V30 6 1 3 5
M  V30 7 2 3 6
M  V30 8 1 3 11
M  V30 9 1 4 9
M  V30 10 1 5 10
M  V30 11 1 6 12
M  V30 END BOND
M  V30 END CTAB
M  END
>  <ID>
102
$$$$
Structure_103
Score 	 6.0, smilesprid 	smiles	 smilestrue 	smiles	 similartanimoto 	0	 similardice 	0

   12   11  0  0  0  0            999 V3000
M  V30 BEGIN CTAB
M  V30 COUNTS 12 11 0 0 0
M  V30 BEGIN ATOM
M  V30 1 C -1.7578 -0.7812 0.0000 0
M  V30 2 C -0.5859 0.1953 0.0000 0
M  V30 3 C 1.7578 0.1953 0.0000 0
M  V30 4 N -0.7812 1.3672 0.0000 0
M  V30 5 N 0.3906 -0.5859 0.0000 0
M  V30 6 N 2.7344 -0.5859 0.0000 0
M  V30 7 O -3.1250 -0.3906 0.0000 0
M  V30 8 H -1.5625 -1.9531 0.0000 0
M  V30 9 H -1.5625 1.7578 0.0000 0
M  V30 10 H 0.5859 -1.7578 0.0000 0
M  V30 11 H 1.7578 1.1719 0.0000 0
M  V30 12 H 3.5156 0.1953 0.0000 0
M  V30 END ATOM
M  V30 BEGIN BOND
M  V30 1 1 1 2
M  V30 2 1 1 7
M  V30 3 1 1 8
M  V30 4 2 2 4
M  V30 5 3 2 5
M  V30 6 1 3 5
M  V30 7 2 3 6
M  V30 8 1 3 11
M  V30 9 1 4 9
M  V30 10 1 5 10
M  V30 11 1 6 12
M  V30 END BOND
M  V30 END CTAB
M  END
>  <ID>
103
$$$$
Structure_104
Score 	 6.0, smilesprid 	smiles	 smilestrue 	smiles	 similartanimoto 	0	 similardice 	0

   12   11  0  0  0  0            999 V3000
M  V30 BEGIN CTAB
M  V30 COUNTS 12 11 0 0 0
M  V30 BEGIN ATOM
M  V30 1 C -1.7578 -0.7812 0.0000 0
M  V30 2 C -0.5859 0.1953 0.0000 0
M  V30 3 C 1.7578 0.1953 0.0000 0
M  V30 4 N -0.7812 1.3672 0.0000 0
M  V30 5 N 0.3906 -0.5859 0.0000 0
M  V30 6 N 2.7344 -0.5859 0.0000 0
M  V30 7 O -3.1250 -0.3906 0.0000 0
M  V30 8 H -1.5625 -1.9531 0.0000 0
M  V30 9 H -1.5625 1.7578 0.0000 0
M  V30 10 H 0.5859 -1.7578 0.0000 0
M  V30 11 H 1.7578 1.1719 0.0000 0
M  V30 12 H 3.5156 0.1953 0.0000 0
M  V30 END ATOM
M  V30 BEGIN BOND
M  V30 1 2 1 2
M  V30 2 1 1 7
M  V30 3 1 1 8
M  V30 4 2 2 4
M  V30 5 3 2 5
M  V30 6 1 3 5
M  V30 7 2 3 6
M  V30 8 1 3 11
M  V30 9 1 4 9
M  V30 10 1 5 10
M  V30 11 1 6 12
M  V30 END BOND
M  V30 END CTAB
M  END
>  <ID>
104
$$$$
Structure_105
Score 	 8.0, smilesprid 	smiles	 smilestrue 	smiles	 similartanimoto 	0	 similardice 	0

   12   11  0  0  0  0            999 V3000
M  V30 BEGIN CTAB
M  V30 COUNTS 12 11 0 0 0
M  V30 BEGIN ATOM
M  V30 1 C -1.7578 -0.7812 0.0000 0
M  V30 2 C -0.5859 0.1953 0.0000 0
M  V30 3 C 1.7578 0.1953 0.0000 0
M  V30 4 N -0.7812 1.3672 0.0000 0
M  V30 5 N 0.3906 -0.5859 0.0000 0
M  V30 6 N 2.7344 -0.5859 0.0000 0
M  V30 7 O -3.1250 -0.3906 0.0000 0
M  V30 8 H -1.5625 -1.9531 0.0000 0
M  V30 9 H -1.5625 1.7578 0.0000 0
M  V30 10 H 0.5859 -1.7578 0.0000 0
M  V30 11 H 1.7578 1.1719 0.0000 0
M  V30 12 H 3.5156 0.1953 0.0000 0
M  V30 END ATOM
M  V30 BEGIN BOND
M  V30 1 3 1 2
M  V30 2 1 1 7
M  V30 3 1 1 8
M  V30 4 2 2 4
M  V30 5 3 2 5
M  V30 6 1 3 5
M  V30 7 2 3 6
M  V30 8 1 3 11
M  V30 9 1 4 9
M  V30 10 1 5 10
M  V30 11 1 6 12
M  V30 END BOND
M  V30 END CTAB
M  END
>  <ID>
105
$$$$
Structure_106
Score 	 8.0, smilesprid 	smiles	 smilestrue 	smiles	 similartanimoto 	0	 similardice 	0

   12   11  0  0  0  0            999 V3000
M  V30 BEGIN CTAB
M  V30 COUNTS 12 11 0 0 0
M  V30 BEGIN ATOM
M  V30 1 C -1.7578 -0.7812 0.0000 0
M  V30 2 C -0.5859 0.1953 0.0000 0
M  V30 3 C 1.7578 0.1953 0.0000 0
M  V30 4 N -0.7812 1.3672 0.0000 0
M  V30 5 N 0.3906 -0.5859 0.0000 0
M  V30 6 N 2.7344 -0.5859 0.0000 0
M  V30 7 O -3.1250 -0.3906 0.0000 0
M  V30 8 H -1.5625 -1.9531 0.0000 0
M  V30 9 H -1.5625 1.7578 0.0000 0
M  V30 10 H 0.5859 -1.7578 0.0000 0
M  V30 11 H 1.7578 1.1719 0.0000 0
M  V30 12 H 3.5156 0.1953 0.0000 0
M  V30 END ATOM
M  V30 BEGIN BOND
M  V30 1 1 1 2
M  V30 2 1 1 7
M  V30 3 1 1 8
M  V30 4 3 2 4
M  V30 5 3 2 5
M  V30 6 1 3 5
M  V30 7 2 3 6
M  V30 8 1 3 11
M  V30 9 1 4 9
M  V30 10 1 5 10
M  V30 11 1 6 12
M  V30 END BOND
M  V30 END CTAB
M  END
>  <ID>
106
$$$$
Structure_107
Score 	 8.0, smilesprid 	smiles	 smilestrue 	smiles	 similartanimoto 	0	 similardice 	0

   12   11  0  0  0  0            999 V3000
M  V30 BEGIN CTAB
M  V30 COUNTS 12 11 0 0 0
M  V30 BEGIN ATOM
M  V30 1 C -1.7578 -0.7812 0.0000 0
M  V30 2 C -0.5859 0.1953 0.0000 0
M  V30 3 C 1.7578 0.1953 0.0000 0
M  V30 4 N -0.7812 1.3672 0.0000 0
M  V30 5 N 0.3906 -0.5859 0.0000 0
M  V30 6 N 2.7344 -0.5859 0.0000 0
M  V30 7 O -3.1250 -0.3906 0.0000 0
M  V30 8 H -1.5625 -1.9531 0.0000 0
M  V30 9 H -1.5625 1.7578 0.0000 0
M  V30 10 H 0.5859 -1.7578 0.0000 0
M  V30 11 H 1.7578 1.1719 0.0000 0
M  V30 12 H 3.5156 0.1953 0.0000 0
M  V30 END ATOM
M  V30 BEGIN BOND
M  V30 1 2 1 2
M  V30 2 1 1 7
M  V30 3 1 1 8
M  V30 4 3 2 4
M  V30 5 3 2 5
M  V30 6 1 3 5
M  V30 7 2 3 6
M  V30 8 1 3 11
M  V30 9 1 4 9
M  V30 10 1 5 10
M  V30 11 1 6 12
M  V30 END BOND
M  V30 END CTAB
M  END
>  <ID>
107
$$$$
Structure_108
Score 	 10.0, smilesprid 	smiles	 smilestrue 	smiles	 similartanimoto 	0	 similardice 	0

   12   11  0  0  0  0            999 V3000
M  V30 BEGIN CTAB
M  V30 COUNTS 12 11 0 0 0
M  V30 BEGIN ATOM
M  V30 1 C -1.7578 -0.7812 0.0000 0
M  V30 2 C -0.5859 0.1953 0.0000 0
M  V30 3 C 1.7578 0.1953 0.0000 0
M  V30 4 N -0.7812 1.3672 0.0000 0
M  V30 5 N 0.3906 -0.5859 0.0000 0
M  V30 6 N 2.7344 -0.5859 0.0000 0
M  V30 7 O -3.1250 -0.3906 0.0000 0
M  V30 8 H -1.5625 -1.9531 0.0000 0
M  V30 9 H -1.5625 1.7578 0.0000 0
M  V30 10 H 0.5859 -1.7578 0.0000 0
M  V30 11 H 1.7578 1.1719 0.0000 0
M  V30 12 H 3.5156 0.1953 0.0000 0
M  V30 END ATOM
M  V30 BEGIN BOND
M  V30 1 3 1 2
M  V30 2 1 1 7
M  V30 3 1 1 8
M  V30 4 3 2 4
M  V30 5 3 2 5
M  V30 6 1 3 5
M  V30 7 2 3 6
M  V30 8 1 3 11
M  V30 9 1 4 9
M  V30 10 1 5 10
M  V30 11 1 6 12
M  V30 END BOND
M  V30 END CTAB
M  END
>  <ID>
108
$$$$
Structure_109
Score 	 6.0, smilesprid 	smiles	 smilestrue 	smiles	 similartanimoto 	0	 similardice 	0

   12   11  0  0  0  0            999 V3000
M  V30 BEGIN CTAB
M  V30 COUNTS 12 11 0 0 0
M  V30 BEGIN ATOM
M  V30 1 C -1.7578 -0.7812 0.0000 0
M  V30 2 C -0.5859 0.1953 0.0000 0
M  V30 3 C 1.7578 0.1953 0.0000 0
M  V30 4 N -0.7812 1.3672 0.0000 0
M  V30 5 N 0.3906 -0.5859 0.0000 0
M  V30 6 N 2.7344 -0.5859 0.0000 0
M  V30 7 O -3.1250 -0.3906 0.0000 0
M  V30 8 H -1.5625 -1.9531 0.0000 0
M  V30 9 H -1.5625 1.7578 0.0000 0
M  V30 10 H 0.5859 -1.7578 0.0000 0
M  V30 11 H 1.7578 1.1719 0.0000 0
M  V30 12 H 3.5156 0.1953 0.0000 0
M  V30 END ATOM
M  V30 BEGIN BOND
M  V30 1 1 1 2
M  V30 2 1 1 7
M  V30 3 1 1 8
M  V30 4 1 2 4
M  V30 5 1 2 5
M  V30 6 2 3 5
M  V30 7 2 3 6
M  V30 8 1 3 11
M  V30 9 1 4 9
M  V30 10 1 5 10
M  V30 11 1 6 12
M  V30 END BOND
M  V30 END CTAB
M  END
>  <ID>
109
$$$$
Structure_110
Score 	 4.0, smilesprid 	smiles	 smilestrue 	smiles	 similartanimoto 	0	 similardice 	0

   12   11  0  0  0  0            999 V3000
M  V30 BEGIN CTAB
M  V30 COUNTS 12 11 0 0 0
M  V30 BEGIN ATOM
M  V30 1 C -1.7578 -0.7812 0.0000 0
M  V30 2 C -0.5859 0.1953 0.0000 0
M  V30 3 C 1.7578 0.1953 0.0000 0
M  V30 4 N -0.7812 1.3672 0.0000 0
M  V30 5 N 0.3906 -0.5859 0.0000 0
M  V30 6 N 2.7344 -0.5859 0.0000 0
M  V30 7 O -3.1250 -0.3906 0.0000 0
M  V30 8 H -1.5625 -1.9531 0.0000 0
M  V30 9 H -1.5625 1.7578 0.0000 0
M  V30 10 H 0.5859 -1.7578 0.0000 0
M  V30 11 H 1.7578 1.1719 0.0000 0
M  V30 12 H 3.5156 0.1953 0.0000 0
M  V30 END ATOM
M  V30 BEGIN BOND
M  V30 1 2 1 2
M  V30 2 1 1 7
M  V30 3 1 1 8
M  V30 4 1 2 4
M  V30 5 1 2 5
M  V30 6 2 3 5
M  V30 7 2 3 6
M  V30 8 1 3 11
M  V30 9 1 4 9
M  V30 10 1 5 10
M  V30 11 1 6 12
M  V30 END BOND
M  V30 END CTAB
M  END
>  <ID>
110
$$$$
Structure_111
Score 	 6.0, smilesprid 	smiles	 smilestrue 	smiles	 similartanimoto 	0	 similardice 	0

   12   11  0  0  0  0            999 V3000
M  V30 BEGIN CTAB
M  V30 COUNTS 12 11 0 0 0
M  V30 BEGIN ATOM
M  V30 1 C -1.7578 -0.7812 0.0000 0
M  V30 2 C -0.5859 0.1953 0.0000 0
M  V30 3 C 1.7578 0.1953 0.0000 0
M  V30 4 N -0.7812 1.3672 0.0000 0
M  V30 5 N 0.3906 -0.5859 0.0000 0
M  V30 6 N 2.7344 -0.5859 0.0000 0
M  V30 7 O -3.1250 -0.3906 0.0000 0
M  V30 8 H -1.5625 -1.9531 0.0000 0
M  V30 9 H -1.5625 1.7578 0.0000 0
M  V30 10 H 0.5859 -1.7578 0.0000 0
M  V30 11 H 1.7578 1.1719 0.0000 0
M  V30 12 H 3.5156 0.1953 0.0000 0
M  V30 END ATOM
M  V30 BEGIN BOND
M  V30 1 3 1 2
M  V30 2 1 1 7
M  V30 3 1 1 8
M  V30 4 1 2 4
M  V30 5 1 2 5
M  V30 6 2 3 5
M  V30 7 2 3 6
M  V30 8 1 3 11
M  V30 9 1 4 9
M  V30 10 1 5 10
M  V30 11 1 6 12
M  V30 END BOND
M  V30 END CTAB
M  END
>  <ID>
111
$$$$
Structure_112
Score 	 4.0, smilesprid 	smiles	 smilestrue 	smiles	 similartanimoto 	0	 similardice 	0

   12   11  0  0  0  0            999 V3000
M  V30 BEGIN CTAB
M  V30 COUNTS 12 11 0 0 0
M  V30 BEGIN ATOM
M  V30 1 C -1.7578 -0.7812 0.0000 0
M  V30 2 C -0.5859 0.1953 0.0000 0
M  V30 3 C 1.7578 0.1953 0.0000 0
M  V30 4 N -0.7812 1.3672 0.0000 0
M  V30 5 N 0.3906 -0.5859 0.0000 0
M  V30 6 N 2.7344 -0.5859 0.0000 0
M  V30 7 O -3.1250 -0.3906 0.0000 0
M  V30 8 H -1.5625 -1.9531 0.0000 0
M  V30 9 H -1.5625 1.7578 0.0000 0
M  V30 10 H 0.5859 -1.7578 0.0000 0
M  V30 11 H 1.7578 1.1719 0.0000 0
M  V30 12 H 3.5156 0.1953 0.0000 0
M  V30 END ATOM
M  V30 BEGIN BOND
M  V30 1 1 1 2
M  V30 2 1 1 7
M  V30 3 1 1 8
M  V30 4 2 2 4
M  V30 5 1 2 5
M  V30 6 2 3 5
M  V30 7 2 3 6
M  V30 8 1 3 11
M  V30 9 1 4 9
M  V30 10 1 5 10
M  V30 11 1 6 12
M  V30 END BOND
M  V30 END CTAB
M  END
>  <ID>
112
$$$$
Structure_113
Score 	 4.0, smilesprid 	smiles	 smilestrue 	smiles	 similartanimoto 	0	 similardice 	0

   12   11  0  0  0  0            999 V3000
M  V30 BEGIN CTAB
M  V30 COUNTS 12 11 0 0 0
M  V30 BEGIN ATOM
M  V30 1 C -1.7578 -0.7812 0.0000 0
M  V30 2 C -0.5859 0.1953 0.0000 0
M  V30 3 C 1.7578 0.1953 0.0000 0
M  V30 4 N -0.7812 1.3672 0.0000 0
M  V30 5 N 0.3906 -0.5859 0.0000 0
M  V30 6 N 2.7344 -0.5859 0.0000 0
M  V30 7 O -3.1250 -0.3906 0.0000 0
M  V30 8 H -1.5625 -1.9531 0.0000 0
M  V30 9 H -1.5625 1.7578 0.0000 0
M  V30 10 H 0.5859 -1.7578 0.0000 0
M  V30 11 H 1.7578 1.1719 0.0000 0
M  V30 12 H 3.5156 0.1953 0.0000 0
M  V30 END ATOM
M  V30 BEGIN BOND
M  V30 1 2 1 2
M  V30 2 1 1 7
M  V30 3 1 1 8
M  V30 4 2 2 4
M  V30 5 1 2 5
M  V30 6 2 3 5
M  V30 7 2 3 6
M  V30 8 1 3 11
M  V30 9 1 4 9
M  V30 10 1 5 10
M  V30 11 1 6 12
M  V30 END BOND
M  V30 END CTAB
M  END
>  <ID>
113
$$$$
Structure_114
Score 	 6.0, smilesprid 	smiles	 smilestrue 	smiles	 similartanimoto 	0	 similardice 	0

   12   11  0  0  0  0            999 V3000
M  V30 BEGIN CTAB
M  V30 COUNTS 12 11 0 0 0
M  V30 BEGIN ATOM
M  V30 1 C -1.7578 -0.7812 0.0000 0
M  V30 2 C -0.5859 0.1953 0.0000 0
M  V30 3 C 1.7578 0.1953 0.0000 0
M  V30 4 N -0.7812 1.3672 0.0000 0
M  V30 5 N 0.3906 -0.5859 0.0000 0
M  V30 6 N 2.7344 -0.5859 0.0000 0
M  V30 7 O -3.1250 -0.3906 0.0000 0
M  V30 8 H -1.5625 -1.9531 0.0000 0
M  V30 9 H -1.5625 1.7578 0.0000 0
M  V30 10 H 0.5859 -1.7578 0.0000 0
M  V30 11 H 1.7578 1.1719 0.0000 0
M  V30 12 H 3.5156 0.1953 0.0000 0
M  V30 END ATOM
M  V30 BEGIN BOND
M  V30 1 3 1 2
M  V30 2 1 1 7
M  V30 3 1 1 8
M  V30 4 2 2 4
M  V30 5 1 2 5
M  V30 6 2 3 5
M  V30 7 2 3 6
M  V30 8 1 3 11
M  V30 9 1 4 9
M  V30 10 1 5 10
M  V30 11 1 6 12
M  V30 END BOND
M  V30 END CTAB
M  END
>  <ID>
114
$$$$
Structure_115
Score 	 6.0, smilesprid 	smiles	 smilestrue 	smiles	 similartanimoto 	0	 similardice 	0

   12   11  0  0  0  0            999 V3000
M  V30 BEGIN CTAB
M  V30 COUNTS 12 11 0 0 0
M  V30 BEGIN ATOM
M  V30 1 C -1.7578 -0.7812 0.0000 0
M  V30 2 C -0.5859 0.1953 0.0000 0
M  V30 3 C 1.7578 0.1953 0.0000 0
M  V30 4 N -0.7812 1.3672 0.0000 0
M  V30 5 N 0.3906 -0.5859 0.0000 0
M  V30 6 N 2.7344 -0.5859 0.0000 0
M  V30 7 O -3.1250 -0.3906 0.0000 0
M  V30 8 H -1.5625 -1.9531 0.0000 0
M  V30 9 H -1.5625 1.7578 0.0000 0
M  V30 10 H 0.5859 -1.7578 0.0000 0
M  V30 11 H 1.7578 1.1719 0.0000 0
M  V30 12 H 3.5156 0.1953 0.0000 0
M  V30 END ATOM
M  V30 BEGIN BOND
M  V30 1 1 1 2
M  V30 2 1 1 7
M  V30 3 1 1 8
M  V30 4 3 2 4
M  V30 5 1 2 5
M  V30 6 2 3 5
M  V30 7 2 3 6
M  V30 8 1 3 11
M  V30 9 1 4 9
M  V30 10 1 5 10
M  V30 11 1 6 12
M  V30 END BOND
M  V30 END CTAB
M  END
>  <ID>
115
$$$$
Structure_116
Score 	 6.0, smilesprid 	smiles	 smilestrue 	smiles	 similartanimoto 	0	 similardice 	0

   12   11  0  0  0  0            999 V3000
M  V30 BEGIN CTAB
M  V30 COUNTS 12 11 0 0 0
M  V30 BEGIN ATOM
M  V30 1 C -1.7578 -0.7812 0.0000 0
M  V30 2 C -0.5859 0.1953 0.0000 0
M  V30 3 C 1.7578 0.1953 0.0000 0
M  V30 4 N -0.7812 1.3672 0.0000 0
M  V30 5 N 0.3906 -0.5859 0.0000 0
M  V30 6 N 2.7344 -0.5859 0.0000 0
M  V30 7 O -3.1250 -0.3906 0.0000 0
M  V30 8 H -1.5625 -1.9531 0.0000 0
M  V30 9 H -1.5625 1.7578 0.0000 0
M  V30 10 H 0.5859 -1.7578 0.0000 0
M  V30 11 H 1.7578 1.1719 0.0000 0
M  V30 12 H 3.5156 0.1953 0.0000 0
M  V30 END ATOM
M  V30 BEGIN BOND
M  V30 1 2 1 2
M  V30 2 1 1 7
M  V30 3 1 1 8
M  V30 4 3 2 4
M  V30 5 1 2 5
M  V30 6 2 3 5
M  V30 7 2 3 6
M  V30 8 1 3 11
M  V30 9 1 4 9
M  V30 10 1 5 10
M  V30 11 1 6 12
M  V30 END BOND
M  V30 END CTAB
M  END
>  <ID>
116
$$$$
Structure_117
Score 	 8.0, smilesprid 	smiles	 smilestrue 	smiles	 similartanimoto 	0	 similardice 	0

   12   11  0  0  0  0            999 V3000
M  V30 BEGIN CTAB
M  V30 COUNTS 12 11 0 0 0
M  V30 BEGIN ATOM
M  V30 1 C -1.7578 -0.7812 0.0000 0
M  V30 2 C -0.5859 0.1953 0.0000 0
M  V30 3 C 1.7578 0.1953 0.0000 0
M  V30 4 N -0.7812 1.3672 0.0000 0
M  V30 5 N 0.3906 -0.5859 0.0000 0
M  V30 6 N 2.7344 -0.5859 0.0000 0
M  V30 7 O -3.1250 -0.3906 0.0000 0
M  V30 8 H -1.5625 -1.9531 0.0000 0
M  V30 9 H -1.5625 1.7578 0.0000 0
M  V30 10 H 0.5859 -1.7578 0.0000 0
M  V30 11 H 1.7578 1.1719 0.0000 0
M  V30 12 H 3.5156 0.1953 0.0000 0
M  V30 END ATOM
M  V30 BEGIN BOND
M  V30 1 3 1 2
M  V30 2 1 1 7
M  V30 3 1 1 8
M  V30 4 3 2 4
M  V30 5 1 2 5
M  V30 6 2 3 5
M  V30 7 2 3 6
M  V30 8 1 3 11
M  V30 9 1 4 9
M  V30 10 1 5 10
M  V30 11 1 6 12
M  V30 END BOND
M  V30 END CTAB
M  END
>  <ID>
117
$$$$
Structure_118
Score 	 6.0, smilesprid 	smiles	 smilestrue 	smiles	 similartanimoto 	0	 similardice 	0

   12   11  0  0  0  0            999 V3000
M  V30 BEGIN CTAB
M  V30 COUNTS 12 11 0 0 0
M  V30 BEGIN ATOM
M  V30 1 C -1.7578 -0.7812 0.0000 0
M  V30 2 C -0.5859 0.1953 0.0000 0
M  V30 3 C 1.7578 0.1953 0.0000 0
M  V30 4 N -0.7812 1.3672 0.0000 0
M  V30 5 N 0.3906 -0.5859 0.0000 0
M  V30 6 N 2.7344 -0.5859 0.0000 0
M  V30 7 O -3.1250 -0.3906 0.0000 0
M  V30 8 H -1.5625 -1.9531 0.0000 0
M  V30 9 H -1.5625 1.7578 0.0000 0
M  V30 10 H 0.5859 -1.7578 0.0000 0
M  V30 11 H 1.7578 1.1719 0.0000 0
M  V30 12 H 3.5156 0.1953 0.0000 0
M  V30 END ATOM
M  V30 BEGIN BOND
M  V30 1 1 1 2
M  V30 2 1 1 7
M  V30 3 1 1 8
M  V30 4 1 2 4
M  V30 5 2 2 5
M  V30 6 2 3 5
M  V30 7 2 3 6
M  V30 8 1 3 11
M  V30 9 1 4 9
M  V30 10 1 5 10
M  V30 11 1 6 12
M  V30 END BOND
M  V30 END CTAB
M  END
>  <ID>
118
$$$$
Structure_119
Score 	 6.0, smilesprid 	smiles	 smilestrue 	smiles	 similartanimoto 	0	 similardice 	0

   12   11  0  0  0  0            999 V3000
M  V30 BEGIN CTAB
M  V30 COUNTS 12 11 0 0 0
M  V30 BEGIN ATOM
M  V30 1 C -1.7578 -0.7812 0.0000 0
M  V30 2 C -0.5859 0.1953 0.0000 0
M  V30 3 C 1.7578 0.1953 0.0000 0
M  V30 4 N -0.7812 1.3672 0.0000 0
M  V30 5 N 0.3906 -0.5859 0.0000 0
M  V30 6 N 2.7344 -0.5859 0.0000 0
M  V30 7 O -3.1250 -0.3906 0.0000 0
M  V30 8 H -1.5625 -1.9531 0.0000 0
M  V30 9 H -1.5625 1.7578 0.0000 0
M  V30 10 H 0.5859 -1.7578 0.0000 0
M  V30 11 H 1.7578 1.1719 0.0000 0
M  V30 12 H 3.5156 0.1953 0.0000 0
M  V30 END ATOM
M  V30 BEGIN BOND
M  V30 1 2 1 2
M  V30 2 1 1 7
M  V30 3 1 1 8
M  V30 4 1 2 4
M  V30 5 2 2 5
M  V30 6 2 3 5
M  V30 7 2 3 6
M  V30 8 1 3 11
M  V30 9 1 4 9
M  V30 10 1 5 10
M  V30 11 1 6 12
M  V30 END BOND
M  V30 END CTAB
M  END
>  <ID>
119
$$$$
Structure_120
Score 	 8.0, smilesprid 	smiles	 smilestrue 	smiles	 similartanimoto 	0	 similardice 	0

   12   11  0  0  0  0            999 V3000
M  V30 BEGIN CTAB
M  V30 COUNTS 12 11 0 0 0
M  V30 BEGIN ATOM
M  V30 1 C -1.7578 -0.7812 0.0000 0
M  V30 2 C -0.5859 0.1953 0.0000 0
M  V30 3 C 1.7578 0.1953 0.0000 0
M  V30 4 N -0.7812 1.3672 0.0000 0
M  V30 5 N 0.3906 -0.5859 0.0000 0
M  V30 6 N 2.7344 -0.5859 0.0000 0
M  V30 7 O -3.1250 -0.3906 0.0000 0
M  V30 8 H -1.5625 -1.9531 0.0000 0
M  V30 9 H -1.5625 1.7578 0.0000 0
M  V30 10 H 0.5859 -1.7578 0.0000 0
M  V30 11 H 1.7578 1.1719 0.0000 0
M  V30 12 H 3.5156 0.1953 0.0000 0
M  V30 END ATOM
M  V30 BEGIN BOND
M  V30 1 3 1 2
M  V30 2 1 1 7
M  V30 3 1 1 8
M  V30 4 1 2 4
M  V30 5 2 2 5
M  V30 6 2 3 5
M  V30 7 2 3 6
M  V30 8 1 3 11
M  V30 9 1 4 9
M  V30 10 1 5 10
M  V30 11 1 6 12
M  V30 END BOND
M  V30 END CTAB
M  END
>  <ID>
120
$$$$
Structure_121
Score 	 6.0, smilesprid 	smiles	 smilestrue 	smiles	 similartanimoto 	0	 similardice 	0

   12   11  0  0  0  0            999 V3000
M  V30 BEGIN CTAB
M  V30 COUNTS 12 11 0 0 0
M  V30 BEGIN ATOM
M  V30 1 C -1.7578 -0.7812 0.0000 0
M  V30 2 C -0.5859 0.1953 0.0000 0
M  V30 3 C 1.7578 0.1953 0.0000 0
M  V30 4 N -0.7812 1.3672 0.0000 0
M  V30 5 N 0.3906 -0.5859 0.0000 0
M  V30 6 N 2.7344 -0.5859 0.0000 0
M  V30 7 O -3.1250 -0.3906 0.0000 0
M  V30 8 H -1.5625 -1.9531 0.0000 0
M  V30 9 H -1.5625 1.7578 0.0000 0
M  V30 10 H 0.5859 -1.7578 0.0000 0
M  V30 11 H 1.7578 1.1719 0.0000 0
M  V30 12 H 3.5156 0.1953 0.0000 0
M  V30 END ATOM
M  V30 BEGIN BOND
M  V30 1 1 1 2
M  V30 2 1 1 7
M  V30 3 1 1 8
M  V30 4 2 2 4
M  V30 5 2 2 5
M  V30 6 2 3 5
M  V30 7 2 3 6
M  V30 8 1 3 11
M  V30 9 1 4 9
M  V30 10 1 5 10
M  V30 11 1 6 12
M  V30 END BOND
M  V30 END CTAB
M  END
>  <ID>
121
$$$$
Structure_122
Score 	 6.0, smilesprid 	smiles	 smilestrue 	smiles	 similartanimoto 	0	 similardice 	0

   12   11  0  0  0  0            999 V3000
M  V30 BEGIN CTAB
M  V30 COUNTS 12 11 0 0 0
M  V30 BEGIN ATOM
M  V30 1 C -1.7578 -0.7812 0.0000 0
M  V30 2 C -0.5859 0.1953 0.0000 0
M  V30 3 C 1.7578 0.1953 0.0000 0
M  V30 4 N -0.7812 1.3672 0.0000 0
M  V30 5 N 0.3906 -0.5859 0.0000 0
M  V30 6 N 2.7344 -0.5859 0.0000 0
M  V30 7 O -3.1250 -0.3906 0.0000 0
M  V30 8 H -1.5625 -1.9531 0.0000 0
M  V30 9 H -1.5625 1.7578 0.0000 0
M  V30 10 H 0.5859 -1.7578 0.0000 0
M  V30 11 H 1.7578 1.1719 0.0000 0
M  V30 12 H 3.5156 0.1953 0.0000 0
M  V30 END ATOM
M  V30 BEGIN BOND
M  V30 1 2 1 2
M  V30 2 1 1 7
M  V30 3 1 1 8
M  V30 4 2 2 4
M  V30 5 2 2 5
M  V30 6 2 3 5
M  V30 7 2 3 6
M  V30 8 1 3 11
M  V30 9 1 4 9
M  V30 10 1 5 10
M  V30 11 1 6 12
M  V30 END BOND
M  V30 END CTAB
M  END
>  <ID>
122
$$$$
Structure_123
Score 	 8.0, smilesprid 	smiles	 smilestrue 	smiles	 similartanimoto 	0	 similardice 	0

   12   11  0  0  0  0            999 V3000
M  V30 BEGIN CTAB
M  V30 COUNTS 12 11 0 0 0
M  V30 BEGIN ATOM
M  V30 1 C -1.7578 -0.7812 0.0000 0
M  V30 2 C -0.5859 0.1953 0.0000 0
M  V30 3 C 1.7578 0.1953 0.0000 0
M  V30 4 N -0.7812 1.3672 0.0000 0
M  V30 5 N 0.3906 -0.5859 0.0000 0
M  V30 6 N 2.7344 -0.5859 0.0000 0
M  V30 7 O -3.1250 -0.3906 0.0000 0
M  V30 8 H -1.5625 -1.9531 0.0000 0
M  V30 9 H -1.5625 1.7578 0.0000 0
M  V30 10 H 0.5859 -1.7578 0.0000 0
M  V30 11 H 1.7578 1.1719 0.0000 0
M  V30 12 H 3.5156 0.1953 0.0000 0
M  V30 END ATOM
M  V30 BEGIN BOND
M  V30 1 3 1 2
M  V30 2 1 1 7
M  V30 3 1 1 8
M  V30 4 2 2 4
M  V30 5 2 2 5
M  V30 6 2 3 5
M  V30 7 2 3 6
M  V30 8 1 3 11
M  V30 9 1 4 9
M  V30 10 1 5 10
M  V30 11 1 6 12
M  V30 END BOND
M  V30 END CTAB
M  END
>  <ID>
123
$$$$
Structure_124
Score 	 8.0, smilesprid 	smiles	 smilestrue 	smiles	 similartanimoto 	0	 similardice 	0

   12   11  0  0  0  0            999 V3000
M  V30 BEGIN CTAB
M  V30 COUNTS 12 11 0 0 0
M  V30 BEGIN ATOM
M  V30 1 C -1.7578 -0.7812 0.0000 0
M  V30 2 C -0.5859 0.1953 0.0000 0
M  V30 3 C 1.7578 0.1953 0.0000 0
M  V30 4 N -0.7812 1.3672 0.0000 0
M  V30 5 N 0.3906 -0.5859 0.0000 0
M  V30 6 N 2.7344 -0.5859 0.0000 0
M  V30 7 O -3.1250 -0.3906 0.0000 0
M  V30 8 H -1.5625 -1.9531 0.0000 0
M  V30 9 H -1.5625 1.7578 0.0000 0
M  V30 10 H 0.5859 -1.7578 0.0000 0
M  V30 11 H 1.7578 1.1719 0.0000 0
M  V30 12 H 3.5156 0.1953 0.0000 0
M  V30 END ATOM
M  V30 BEGIN BOND
M  V30 1 1 1 2
M  V30 2 1 1 7
M  V30 3 1 1 8
M  V30 4 3 2 4
M  V30 5 2 2 5
M  V30 6 2 3 5
M  V30 7 2 3 6
M  V30 8 1 3 11
M  V30 9 1 4 9
M  V30 10 1 5 10
M  V30 11 1 6 12
M  V30 END BOND
M  V30 END CTAB
M  END
>  <ID>
124
$$$$
Structure_125
Score 	 8.0, smilesprid 	smiles	 smilestrue 	smiles	 similartanimoto 	0	 similardice 	0

   12   11  0  0  0  0            999 V3000
M  V30 BEGIN CTAB
M  V30 COUNTS 12 11 0 0 0
M  V30 BEGIN ATOM
M  V30 1 C -1.7578 -0.7812 0.0000 0
M  V30 2 C -0.5859 0.1953 0.0000 0
M  V30 3 C 1.7578 0.1953 0.0000 0
M  V30 4 N -0.7812 1.3672 0.0000 0
M  V30 5 N 0.3906 -0.5859 0.0000 0
M  V30 6 N 2.7344 -0.5859 0.0000 0
M  V30 7 O -3.1250 -0.3906 0.0000 0
M  V30 8 H -1.5625 -1.9531 0.0000 0
M  V30 9 H -1.5625 1.7578 0.0000 0
M  V30 10 H 0.5859 -1.7578 0.0000 0
M  V30 11 H 1.7578 1.1719 0.0000 0
M  V30 12 H 3.5156 0.1953 0.0000 0
M  V30 END ATOM
M  V30 BEGIN BOND
M  V30 1 2 1 2
M  V30 2 1 1 7
M  V30 3 1 1 8
M  V30 4 3 2 4
M  V30 5 2 2 5
M  V30 6 2 3 5
M  V30 7 2 3 6
M  V30 8 1 3 11
M  V30 9 1 4 9
M  V30 10 1 5 10
M  V30 11 1 6 12
M  V30 END BOND
M  V30 END CTAB
M  END
>  <ID>
125
$$$$
Structure_126
Score 	 10.0, smilesprid 	smiles	 smilestrue 	smiles	 similartanimoto 	0	 similardice 	0

   12   11  0  0  0  0            999 V3000
M  V30 BEGIN CTAB
M  V30 COUNTS 12 11 0 0 0
M  V30 BEGIN ATOM
M  V30 1 C -1.7578 -0.7812 0.0000 0
M  V30 2 C -0.5859 0.1953 0.0000 0
M  V30 3 C 1.7578 0.1953 0.0000 0
M  V30 4 N -0.7812 1.3672 0.0000 0
M  V30 5 N 0.3906 -0.5859 0.0000 0
M  V30 6 N 2.7344 -0.5859 0.0000 0
M  V30 7 O -3.1250 -0.3906 0.0000 0
M  V30 8 H -1.5625 -1.9531 0.0000 0
M  V30 9 H -1.5625 1.7578 0.0000 0
M  V30 10 H 0.5859 -1.7578 0.0000 0
M  V30 11 H 1.7578 1.1719 0.0000 0
M  V30 12 H 3.5156 0.1953 0.0000 0
M  V30 END ATOM
M  V30 BEGIN BOND
M  V30 1 3 1 2
M  V30 2 1 1 7
M  V30 3 1 1 8
M  V30 4 3 2 4
M  V30 5 2 2 5
M  V30 6 2 3 5
M  V30 7 2 3 6
M  V30 8 1 3 11
M  V30 9 1 4 9
M  V30 10 1 5 10
M  V30 11 1 6 12
M  V30 END BOND
M  V30 END CTAB
M  END
>  <ID>
126
$$$$
Structure_127
Score 	 8.0, smilesprid 	smiles	 smilestrue 	smiles	 similartanimoto 	0	 similardice 	0

   12   11  0  0  0  0            999 V3000
M  V30 BEGIN CTAB
M  V30 COUNTS 12 11 0 0 0
M  V30 BEGIN ATOM
M  V30 1 C -1.7578 -0.7812 0.0000 0
M  V30 2 C -0.5859 0.1953 0.0000 0
M  V30 3 C 1.7578 0.1953 0.0000 0
M  V30 4 N -0.7812 1.3672 0.0000 0
M  V30 5 N 0.3906 -0.5859 0.0000 0
M  V30 6 N 2.7344 -0.5859 0.0000 0
M  V30 7 O -3.1250 -0.3906 0.0000 0
M  V30 8 H -1.5625 -1.9531 0.0000 0
M  V30 9 H -1.5625 1.7578 0.0000 0
M  V30 10 H 0.5859 -1.7578 0.0000 0
M  V30 11 H 1.7578 1.1719 0.0000 0
M  V30 12 H 3.5156 0.1953 0.0000 0
M  V30 END ATOM
M  V30 BEGIN BOND
M  V30 1 1 1 2
M  V30 2 1 1 7
M  V30 3 1 1 8
M  V30 4 1 2 4
M  V30 5 3 2 5
M  V30 6 2 3 5
M  V30 7 2 3 6
M  V30 8 1 3 11
M  V30 9 1 4 9
M  V30 10 1 5 10
M  V30 11 1 6 12
M  V30 END BOND
M  V30 END CTAB
M  END
>  <ID>
127
$$$$
Structure_128
Score 	 8.0, smilesprid 	smiles	 smilestrue 	smiles	 similartanimoto 	0	 similardice 	0

   12   11  0  0  0  0            999 V3000
M  V30 BEGIN CTAB
M  V30 COUNTS 12 11 0 0 0
M  V30 BEGIN ATOM
M  V30 1 C -1.7578 -0.7812 0.0000 0
M  V30 2 C -0.5859 0.1953 0.0000 0
M  V30 3 C 1.7578 0.1953 0.0000 0
M  V30 4 N -0.7812 1.3672 0.0000 0
M  V30 5 N 0.3906 -0.5859 0.0000 0
M  V30 6 N 2.7344 -0.5859 0.0000 0
M  V30 7 O -3.1250 -0.3906 0.0000 0
M  V30 8 H -1.5625 -1.9531 0.0000 0
M  V30 9 H -1.5625 1.7578 0.0000 0
M  V30 10 H 0.5859 -1.7578 0.0000 0
M  V30 11 H 1.7578 1.1719 0.0000 0
M  V30 12 H 3.5156 0.1953 0.0000 0
M  V30 END ATOM
M  V30 BEGIN BOND
M  V30 1 2 1 2
M  V30 2 1 1 7
M  V30 3 1 1 8
M  V30 4 1 2 4
M  V30 5 3 2 5
M  V30 6 2 3 5
M  V30 7 2 3 6
M  V30 8 1 3 11
M  V30 9 1 4 9
M  V30 10 1 5 10
M  V30 11 1 6 12
M  V30 END BOND
M  V30 END CTAB
M  END
>  <ID>
128
$$$$
Structure_129
Score 	 10.0, smilesprid 	smiles	 smilestrue 	smiles	 similartanimoto 	0	 similardice 	0

   12   11  0  0  0  0            999 V3000
M  V30 BEGIN CTAB
M  V30 COUNTS 12 11 0 0 0
M  V30 BEGIN ATOM
M  V30 1 C -1.7578 -0.7812 0.0000 0
M  V30 2 C -0.5859 0.1953 0.0000 0
M  V30 3 C 1.7578 0.1953 0.0000 0
M  V30 4 N -0.7812 1.3672 0.0000 0
M  V30 5 N 0.3906 -0.5859 0.0000 0
M  V30 6 N 2.7344 -0.5859 0.0000 0
M  V30 7 O -3.1250 -0.3906 0.0000 0
M  V30 8 H -1.5625 -1.9531 0.0000 0
M  V30 9 H -1.5625 1.7578 0.0000 0
M  V30 10 H 0.5859 -1.7578 0.0000 0
M  V30 11 H 1.7578 1.1719 0.0000 0
M  V30 12 H 3.5156 0.1953 0.0000 0
M  V30 END ATOM
M  V30 BEGIN BOND
M  V30 1 3 1 2
M  V30 2 1 1 7
M  V30 3 1 1 8
M  V30 4 1 2 4
M  V30 5 3 2 5
M  V30 6 2 3 5
M  V30 7 2 3 6
M  V30 8 1 3 11
M  V30 9 1 4 9
M  V30 10 1 5 10
M  V30 11 1 6 12
M  V30 END BOND
M  V30 END CTAB
M  END
>  <ID>
129
$$$$
Structure_130
Score 	 8.0, smilesprid 	smiles	 smilestrue 	smiles	 similartanimoto 	0	 similardice 	0

   12   11  0  0  0  0            999 V3000
M  V30 BEGIN CTAB
M  V30 COUNTS 12 11 0 0 0
M  V30 BEGIN ATOM
M  V30 1 C -1.7578 -0.7812 0.0000 0
M  V30 2 C -0.5859 0.1953 0.0000 0
M  V30 3 C 1.7578 0.1953 0.0000 0
M  V30 4 N -0.7812 1.3672 0.0000 0
M  V30 5 N 0.3906 -0.5859 0.0000 0
M  V30 6 N 2.7344 -0.5859 0.0000 0
M  V30 7 O -3.1250 -0.3906 0.0000 0
M  V30 8 H -1.5625 -1.9531 0.0000 0
M  V30 9 H -1.5625 1.7578 0.0000 0
M  V30 10 H 0.5859 -1.7578 0.0000 0
M  V30 11 H 1.7578 1.1719 0.0000 0
M  V30 12 H 3.5156 0.1953 0.0000 0
M  V30 END ATOM
M  V30 BEGIN BOND
M  V30 1 1 1 2
M  V30 2 1 1 7
M  V30 3 1 1 8
M  V30 4 2 2 4
M  V30 5 3 2 5
M  V30 6 2 3 5
M  V30 7 2 3 6
M  V30 8 1 3 11
M  V30 9 1 4 9
M  V30 10 1 5 10
M  V30 11 1 6 12
M  V30 END BOND
M  V30 END CTAB
M  END
>  <ID>
130
$$$$
Structure_131
Score 	 8.0, smilesprid 	smiles	 smilestrue 	smiles	 similartanimoto 	0	 similardice 	0

   12   11  0  0  0  0            999 V3000
M  V30 BEGIN CTAB
M  V30 COUNTS 12 11 0 0 0
M  V30 BEGIN ATOM
M  V30 1 C -1.7578 -0.7812 0.0000 0
M  V30 2 C -0.5859 0.1953 0.0000 0
M  V30 3 C 1.7578 0.1953 0.0000 0
M  V30 4 N -0.7812 1.3672 0.0000 0
M  V30 5 N 0.3906 -0.5859 0.0000 0
M  V30 6 N 2.7344 -0.5859 0.0000 0
M  V30 7 O -3.1250 -0.3906 0.0000 0
M  V30 8 H -1.5625 -1.9531 0.0000 0
M  V30 9 H -1.5625 1.7578 0.0000 0
M  V30 10 H 0.5859 -1.7578 0.0000 0
M  V30 11 H 1.7578 1.1719 0.0000 0
M  V30 12 H 3.5156 0.1953 0.0000 0
M  V30 END ATOM
M  V30 BEGIN BOND
M  V30 1 2 1 2
M  V30 2 1 1 7
M  V30 3 1 1 8
M  V30 4 2 2 4
M  V30 5 3 2 5
M  V30 6 2 3 5
M  V30 7 2 3 6
M  V30 8 1 3 11
M  V30 9 1 4 9
M  V30 10 1 5 10
M  V30 11 1 6 12
M  V30 END BOND
M  V30 END CTAB
M  END
>  <ID>
131
$$$$
Structure_132
Score 	 10.0, smilesprid 	smiles	 smilestrue 	smiles	 similartanimoto 	0	 similardice 	0

   12   11  0  0  0  0            999 V3000
M  V30 BEGIN CTAB
M  V30 COUNTS 12 11 0 0 0
M  V30 BEGIN ATOM
M  V30 1 C -1.7578 -0.7812 0.0000 0
M  V30 2 C -0.5859 0.1953 0.0000 0
M  V30 3 C 1.7578 0.1953 0.0000 0
M  V30 4 N -0.7812 1.3672 0.0000 0
M  V30 5 N 0.3906 -0.5859 0.0000 0
M  V30 6 N 2.7344 -0.5859 0.0000 0
M  V30 7 O -3.1250 -0.3906 0.0000 0
M  V30 8 H -1.5625 -1.9531 0.0000 0
M  V30 9 H -1.5625 1.7578 0.0000 0
M  V30 10 H 0.5859 -1.7578 0.0000 0
M  V30 11 H 1.7578 1.1719 0.0000 0
M  V30 12 H 3.5156 0.1953 0.0000 0
M  V30 END ATOM
M  V30 BEGIN BOND
M  V30 1 3 1 2
M  V30 2 1 1 7
M  V30 3 1 1 8
M  V30 4 2 2 4
M  V30 5 3 2 5
M  V30 6 2 3 5
M  V30 7 2 3 6
M  V30 8 1 3 11
M  V30 9 1 4 9
M  V30 10 1 5 10
M  V30 11 1 6 12
M  V30 END BOND
M  V30 END CTAB
M  END
>  <ID>
132
$$$$
Structure_133
Score 	 10.0, smilesprid 	smiles	 smilestrue 	smiles	 similartanimoto 	0	 similardice 	0

   12   11  0  0  0  0            999 V3000
M  V30 BEGIN CTAB
M  V30 COUNTS 12 11 0 0 0
M  V30 BEGIN ATOM
M  V30 1 C -1.7578 -0.7812 0.0000 0
M  V30 2 C -0.5859 0.1953 0.0000 0
M  V30 3 C 1.7578 0.1953 0.0000 0
M  V30 4 N -0.7812 1.3672 0.0000 0
M  V30 5 N 0.3906 -0.5859 0.0000 0
M  V30 6 N 2.7344 -0.5859 0.0000 0
M  V30 7 O -3.1250 -0.3906 0.0000 0
M  V30 8 H -1.5625 -1.9531 0.0000 0
M  V30 9 H -1.5625 1.7578 0.0000 0
M  V30 10 H 0.5859 -1.7578 0.0000 0
M  V30 11 H 1.7578 1.1719 0.0000 0
M  V30 12 H 3.5156 0.1953 0.0000 0
M  V30 END ATOM
M  V30 BEGIN BOND
M  V30 1 1 1 2
M  V30 2 1 1 7
M  V30 3 1 1 8
M  V30 4 3 2 4
M  V30 5 3 2 5
M  V30 6 2 3 5
M  V30 7 2 3 6
M  V30 8 1 3 11
M  V30 9 1 4 9
M  V30 10 1 5 10
M  V30 11 1 6 12
M  V30 END BOND
M  V30 END CTAB
M  END
>  <ID>
133
$$$$
Structure_134
Score 	 10.0, smilesprid 	smiles	 smilestrue 	smiles	 similartanimoto 	0	 similardice 	0

   12   11  0  0  0  0            999 V3000
M  V30 BEGIN CTAB
M  V30 COUNTS 12 11 0 0 0
M  V30 BEGIN ATOM
M  V30 1 C -1.7578 -0.7812 0.0000 0
M  V30 2 C -0.5859 0.1953 0.0000 0
M  V30 3 C 1.7578 0.1953 0.0000 0
M  V30 4 N -0.7812 1.3672 0.0000 0
M  V30 5 N 0.3906 -0.5859 0.0000 0
M  V30 6 N 2.7344 -0.5859 0.0000 0
M  V30 7 O -3.1250 -0.3906 0.0000 0
M  V30 8 H -1.5625 -1.9531 0.0000 0
M  V30 9 H -1.5625 1.7578 0.0000 0
M  V30 10 H 0.5859 -1.7578 0.0000 0
M  V30 11 H 1.7578 1.1719 0.0000 0
M  V30 12 H 3.5156 0.1953 0.0000 0
M  V30 END ATOM
M  V30 BEGIN BOND
M  V30 1 2 1 2
M  V30 2 1 1 7
M  V30 3 1 1 8
M  V30 4 3 2 4
M  V30 5 3 2 5
M  V30 6 2 3 5
M  V30 7 2 3 6
M  V30 8 1 3 11
M  V30 9 1 4 9
M  V30 10 1 5 10
M  V30 11 1 6 12
M  V30 END BOND
M  V30 END CTAB
M  END
>  <ID>
134
$$$$
Structure_135
Score 	 12.0, smilesprid 	smiles	 smilestrue 	smiles	 similartanimoto 	0	 similardice 	0

   12   11  0  0  0  0            999 V3000
M  V30 BEGIN CTAB
M  V30 COUNTS 12 11 0 0 0
M  V30 BEGIN ATOM
M  V30 1 C -1.7578 -0.7812 0.0000 0
M  V30 2 C -0.5859 0.1953 0.0000 0
M  V30 3 C 1.7578 0.1953 0.0000 0
M  V30 4 N -0.7812 1.3672 0.0000 0
M  V30 5 N 0.3906 -0.5859 0.0000 0
M  V30 6 N 2.7344 -0.5859 0.0000 0
M  V30 7 O -3.1250 -0.3906 0.0000 0
M  V30 8 H -1.5625 -1.9531 0.0000 0
M  V30 9 H -1.5625 1.7578 0.0000 0
M  V30 10 H 0.5859 -1.7578 0.0000 0
M  V30 11 H 1.7578 1.1719 0.0000 0
M  V30 12 H 3.5156 0.1953 0.0000 0
M  V30 END ATOM
M  V30 BEGIN BOND
M  V30 1 3 1 2
M  V30 2 1 1 7
M  V30 3 1 1 8
M  V30 4 3 2 4
M  V30 5 3 2 5
M  V30 6 2 3 5
M  V30 7 2 3 6
M  V30 8 1 3 11
M  V30 9 1 4 9
M  V30 10 1 5 10
M  V30 11 1 6 12
M  V30 END BOND
M  V30 END CTAB
M  END
>  <ID>
135
$$$$
Structure_136
Score 	 8.0, smilesprid 	smiles	 smilestrue 	smiles	 similartanimoto 	0	 similardice 	0

   12   11  0  0  0  0            999 V3000
M  V30 BEGIN CTAB
M  V30 COUNTS 12 11 0 0 0
M  V30 BEGIN ATOM
M  V30 1 C -1.7578 -0.7812 0.0000 0
M  V30 2 C -0.5859 0.1953 0.0000 0
M  V30 3 C 1.7578 0.1953 0.0000 0
M  V30 4 N -0.7812 1.3672 0.0000 0
M  V30 5 N 0.3906 -0.5859 0.0000 0
M  V30 6 N 2.7344 -0.5859 0.0000 0
M  V30 7 O -3.1250 -0.3906 0.0000 0
M  V30 8 H -1.5625 -1.9531 0.0000 0
M  V30 9 H -1.5625 1.7578 0.0000 0
M  V30 10 H 0.5859 -1.7578 0.0000 0
M  V30 11 H 1.7578 1.1719 0.0000 0
M  V30 12 H 3.5156 0.1953 0.0000 0
M  V30 END ATOM
M  V30 BEGIN BOND
M  V30 1 1 1 2
M  V30 2 1 1 7
M  V30 3 1 1 8
M  V30 4 1 2 4
M  V30 5 1 2 5
M  V30 6 3 3 5
M  V30 7 2 3 6
M  V30 8 1 3 11
M  V30 9 1 4 9
M  V30 10 1 5 10
M  V30 11 1 6 12
M  V30 END BOND
M  V30 END CTAB
M  END
>  <ID>
136
$$$$
Structure_137
Score 	 6.0, smilesprid 	smiles	 smilestrue 	smiles	 similartanimoto 	0	 similardice 	0

   12   11  0  0  0  0            999 V3000
M  V30 BEGIN CTAB
M  V30 COUNTS 12 11 0 0 0
M  V30 BEGIN ATOM
M  V30 1 C -1.7578 -0.7812 0.0000 0
M  V30 2 C -0.5859 0.1953 0.0000 0
M  V30 3 C 1.7578 0.1953 0.0000 0
M  V30 4 N -0.7812 1.3672 0.0000 0
M  V30 5 N 0.3906 -0.5859 0.0000 0
M  V30 6 N 2.7344 -0.5859 0.0000 0
M  V30 7 O -3.1250 -0.3906 0.0000 0
M  V30 8 H -1.5625 -1.9531 0.0000 0
M  V30 9 H -1.5625 1.7578 0.0000 0
M  V30 10 H 0.5859 -1.7578 0.0000 0
M  V30 11 H 1.7578 1.1719 0.0000 0
M  V30 12 H 3.5156 0.1953 0.0000 0
M  V30 END ATOM
M  V30 BEGIN BOND
M  V30 1 2 1 2
M  V30 2 1 1 7
M  V30 3 1 1 8
M  V30 4 1 2 4
M  V30 5 1 2 5
M  V30 6 3 3 5
M  V30 7 2 3 6
M  V30 8 1 3 11
M  V30 9 1 4 9
M  V30 10 1 5 10
M  V30 11 1 6 12
M  V30 END BOND
M  V30 END CTAB
M  END
>  <ID>
137
$$$$
Structure_138
Score 	 8.0, smilesprid 	smiles	 smilestrue 	smiles	 similartanimoto 	0	 similardice 	0

   12   11  0  0  0  0            999 V3000
M  V30 BEGIN CTAB
M  V30 COUNTS 12 11 0 0 0
M  V30 BEGIN ATOM
M  V30 1 C -1.7578 -0.7812 0.0000 0
M  V30 2 C -0.5859 0.1953 0.0000 0
M  V30 3 C 1.7578 0.1953 0.0000 0
M  V30 4 N -0.7812 1.3672 0.0000 0
M  V30 5 N 0.3906 -0.5859 0.0000 0
M  V30 6 N 2.7344 -0.5859 0.0000 0
M  V30 7 O -3.1250 -0.3906 0.0000 0
M  V30 8 H -1.5625 -1.9531 0.0000 0
M  V30 9 H -1.5625 1.7578 0.0000 0
M  V30 10 H 0.5859 -1.7578 0.0000 0
M  V30 11 H 1.7578 1.1719 0.0000 0
M  V30 12 H 3.5156 0.1953 0.0000 0
M  V30 END ATOM
M  V30 BEGIN BOND
M  V30 1 3 1 2
M  V30 2 1 1 7
M  V30 3 1 1 8
M  V30 4 1 2 4
M  V30 5 1 2 5
M  V30 6 3 3 5
M  V30 7 2 3 6
M  V30 8 1 3 11
M  V30 9 1 4 9
M  V30 10 1 5 10
M  V30 11 1 6 12
M  V30 END BOND
M  V30 END CTAB
M  END
>  <ID>
138
$$$$
Structure_139
Score 	 6.0, smilesprid 	smiles	 smilestrue 	smiles	 similartanimoto 	0	 similardice 	0

   12   11  0  0  0  0            999 V3000
M  V30 BEGIN CTAB
M  V30 COUNTS 12 11 0 0 0
M  V30 BEGIN ATOM
M  V30 1 C -1.7578 -0.7812 0.0000 0
M  V30 2 C -0.5859 0.1953 0.0000 0
M  V30 3 C 1.7578 0.1953 0.0000 0
M  V30 4 N -0.7812 1.3672 0.0000 0
M  V30 5 N 0.3906 -0.5859 0.0000 0
M  V30 6 N 2.7344 -0.5859 0.0000 0
M  V30 7 O -3.1250 -0.3906 0.0000 0
M  V30 8 H -1.5625 -1.9531 0.0000 0
M  V30 9 H -1.5625 1.7578 0.0000 0
M  V30 10 H 0.5859 -1.7578 0.0000 0
M  V30 11 H 1.7578 1.1719 0.0000 0
M  V30 12 H 3.5156 0.1953 0.0000 0
M  V30 END ATOM
M  V30 BEGIN BOND
M  V30 1 1 1 2
M  V30 2 1 1 7
M  V30 3 1 1 8
M  V30 4 2 2 4
M  V30 5 1 2 5
M  V30 6 3 3 5
M  V30 7 2 3 6
M  V30 8 1 3 11
M  V30 9 1 4 9
M  V30 10 1 5 10
M  V30 11 1 6 12
M  V30 END BOND
M  V30 END CTAB
M  END
>  <ID>
139
$$$$
Structure_140
Score 	 6.0, smilesprid 	smiles	 smilestrue 	smiles	 similartanimoto 	0	 similardice 	0

   12   11  0  0  0  0            999 V3000
M  V30 BEGIN CTAB
M  V30 COUNTS 12 11 0 0 0
M  V30 BEGIN ATOM
M  V30 1 C -1.7578 -0.7812 0.0000 0
M  V30 2 C -0.5859 0.1953 0.0000 0
M  V30 3 C 1.7578 0.1953 0.0000 0
M  V30 4 N -0.7812 1.3672 0.0000 0
M  V30 5 N 0.3906 -0.5859 0.0000 0
M  V30 6 N 2.7344 -0.5859 0.0000 0
M  V30 7 O -3.1250 -0.3906 0.0000 0
M  V30 8 H -1.5625 -1.9531 0.0000 0
M  V30 9 H -1.5625 1.7578 0.0000 0
M  V30 10 H 0.5859 -1.7578 0.0000 0
M  V30 11 H 1.7578 1.1719 0.0000 0
M  V30 12 H 3.5156 0.1953 0.0000 0
M  V30 END ATOM
M  V30 BEGIN BOND
M  V30 1 2 1 2
M  V30 2 1 1 7
M  V30 3 1 1 8
M  V30 4 2 2 4
M  V30 5 1 2 5
M  V30 6 3 3 5
M  V30 7 2 3 6
M  V30 8 1 3 11
M  V30 9 1 4 9
M  V30 10 1 5 10
M  V30 11 1 6 12
M  V30 END BOND
M  V30 END CTAB
M  END
>  <ID>
140
$$$$
Structure_141
Score 	 8.0, smilesprid 	smiles	 smilestrue 	smiles	 similartanimoto 	0	 similardice 	0

   12   11  0  0  0  0            999 V3000
M  V30 BEGIN CTAB
M  V30 COUNTS 12 11 0 0 0
M  V30 BEGIN ATOM
M  V30 1 C -1.7578 -0.7812 0.0000 0
M  V30 2 C -0.5859 0.1953 0.0000 0
M  V30 3 C 1.7578 0.1953 0.0000 0
M  V30 4 N -0.7812 1.3672 0.0000 0
M  V30 5 N 0.3906 -0.5859 0.0000 0
M  V30 6 N 2.7344 -0.5859 0.0000 0
M  V30 7 O -3.1250 -0.3906 0.0000 0
M  V30 8 H -1.5625 -1.9531 0.0000 0
M  V30 9 H -1.5625 1.7578 0.0000 0
M  V30 10 H 0.5859 -1.7578 0.0000 0
M  V30 11 H 1.7578 1.1719 0.0000 0
M  V30 12 H 3.5156 0.1953 0.0000 0
M  V30 END ATOM
M  V30 BEGIN BOND
M  V30 1 3 1 2
M  V30 2 1 1 7
M  V30 3 1 1 8
M  V30 4 2 2 4
M  V30 5 1 2 5
M  V30 6 3 3 5
M  V30 7 2 3 6
M  V30 8 1 3 11
M  V30 9 1 4 9
M  V30 10 1 5 10
M  V30 11 1 6 12
M  V30 END BOND
M  V30 END CTAB
M  END
>  <ID>
141
$$$$
Structure_142
Score 	 8.0, smilesprid 	smiles	 smilestrue 	smiles	 similartanimoto 	0	 similardice 	0

   12   11  0  0  0  0            999 V3000
M  V30 BEGIN CTAB
M  V30 COUNTS 12 11 0 0 0
M  V30 BEGIN ATOM
M  V30 1 C -1.7578 -0.7812 0.0000 0
M  V30 2 C -0.5859 0.1953 0.0000 0
M  V30 3 C 1.7578 0.1953 0.0000 0
M  V30 4 N -0.7812 1.3672 0.0000 0
M  V30 5 N 0.3906 -0.5859 0.0000 0
M  V30 6 N 2.7344 -0.5859 0.0000 0
M  V30 7 O -3.1250 -0.3906 0.0000 0
M  V30 8 H -1.5625 -1.9531 0.0000 0
M  V30 9 H -1.5625 1.7578 0.0000 0
M  V30 10 H 0.5859 -1.7578 0.0000 0
M  V30 11 H 1.7578 1.1719 0.0000 0
M  V30 12 H 3.5156 0.1953 0.0000 0
M  V30 END ATOM
M  V30 BEGIN BOND
M  V30 1 1 1 2
M  V30 2 1 1 7
M  V30 3 1 1 8
M  V30 4 3 2 4
M  V30 5 1 2 5
M  V30 6 3 3 5
M  V30 7 2 3 6
M  V30 8 1 3 11
M  V30 9 1 4 9
M  V30 10 1 5 10
M  V30 11 1 6 12
M  V30 END BOND
M  V30 END CTAB
M  END
>  <ID>
142
$$$$
Structure_143
Score 	 8.0, smilesprid 	smiles	 smilestrue 	smiles	 similartanimoto 	0	 similardice 	0

   12   11  0  0  0  0            999 V3000
M  V30 BEGIN CTAB
M  V30 COUNTS 12 11 0 0 0
M  V30 BEGIN ATOM
M  V30 1 C -1.7578 -0.7812 0.0000 0
M  V30 2 C -0.5859 0.1953 0.0000 0
M  V30 3 C 1.7578 0.1953 0.0000 0
M  V30 4 N -0.7812 1.3672 0.0000 0
M  V30 5 N 0.3906 -0.5859 0.0000 0
M  V30 6 N 2.7344 -0.5859 0.0000 0
M  V30 7 O -3.1250 -0.3906 0.0000 0
M  V30 8 H -1.5625 -1.9531 0.0000 0
M  V30 9 H -1.5625 1.7578 0.0000 0
M  V30 10 H 0.5859 -1.7578 0.0000 0
M  V30 11 H 1.7578 1.1719 0.0000 0
M  V30 12 H 3.5156 0.1953 0.0000 0
M  V30 END ATOM
M  V30 BEGIN BOND
M  V30 1 2 1 2
M  V30 2 1 1 7
M  V30 3 1 1 8
M  V30 4 3 2 4
M  V30 5 1 2 5
M  V30 6 3 3 5
M  V30 7 2 3 6
M  V30 8 1 3 11
M  V30 9 1 4 9
M  V30 10 1 5 10
M  V30 11 1 6 12
M  V30 END BOND
M  V30 END CTAB
M  END
>  <ID>
143
$$$$
Structure_144
Score 	 10.0, smilesprid 	smiles	 smilestrue 	smiles	 similartanimoto 	0	 similardice 	0

   12   11  0  0  0  0            999 V3000
M  V30 BEGIN CTAB
M  V30 COUNTS 12 11 0 0 0
M  V30 BEGIN ATOM
M  V30 1 C -1.7578 -0.7812 0.0000 0
M  V30 2 C -0.5859 0.1953 0.0000 0
M  V30 3 C 1.7578 0.1953 0.0000 0
M  V30 4 N -0.7812 1.3672 0.0000 0
M  V30 5 N 0.3906 -0.5859 0.0000 0
M  V30 6 N 2.7344 -0.5859 0.0000 0
M  V30 7 O -3.1250 -0.3906 0.0000 0
M  V30 8 H -1.5625 -1.9531 0.0000 0
M  V30 9 H -1.5625 1.7578 0.0000 0
M  V30 10 H 0.5859 -1.7578 0.0000 0
M  V30 11 H 1.7578 1.1719 0.0000 0
M  V30 12 H 3.5156 0.1953 0.0000 0
M  V30 END ATOM
M  V30 BEGIN BOND
M  V30 1 3 1 2
M  V30 2 1 1 7
M  V30 3 1 1 8
M  V30 4 3 2 4
M  V30 5 1 2 5
M  V30 6 3 3 5
M  V30 7 2 3 6
M  V30 8 1 3 11
M  V30 9 1 4 9
M  V30 10 1 5 10
M  V30 11 1 6 12
M  V30 END BOND
M  V30 END CTAB
M  END
>  <ID>
144
$$$$
Structure_145
Score 	 8.0, smilesprid 	smiles	 smilestrue 	smiles	 similartanimoto 	0	 similardice 	0

   12   11  0  0  0  0            999 V3000
M  V30 BEGIN CTAB
M  V30 COUNTS 12 11 0 0 0
M  V30 BEGIN ATOM
M  V30 1 C -1.7578 -0.7812 0.0000 0
M  V30 2 C -0.5859 0.1953 0.0000 0
M  V30 3 C 1.7578 0.1953 0.0000 0
M  V30 4 N -0.7812 1.3672 0.0000 0
M  V30 5 N 0.3906 -0.5859 0.0000 0
M  V30 6 N 2.7344 -0.5859 0.0000 0
M  V30 7 O -3.1250 -0.3906 0.0000 0
M  V30 8 H -1.5625 -1.9531 0.0000 0
M  V30 9 H -1.5625 1.7578 0.0000 0
M  V30 10 H 0.5859 -1.7578 0.0000 0
M  V30 11 H 1.7578 1.1719 0.0000 0
M  V30 12 H 3.5156 0.1953 0.0000 0
M  V30 END ATOM
M  V30 BEGIN BOND
M  V30 1 1 1 2
M  V30 2 1 1 7
M  V30 3 1 1 8
M  V30 4 1 2 4
M  V30 5 2 2 5
M  V30 6 3 3 5
M  V30 7 2 3 6
M  V30 8 1 3 11
M  V30 9 1 4 9
M  V30 10 1 5 10
M  V30 11 1 6 12
M  V30 END BOND
M  V30 END CTAB
M  END
>  <ID>
145
$$$$
Structure_146
Score 	 8.0, smilesprid 	smiles	 smilestrue 	smiles	 similartanimoto 	0	 similardice 	0

   12   11  0  0  0  0            999 V3000
M  V30 BEGIN CTAB
M  V30 COUNTS 12 11 0 0 0
M  V30 BEGIN ATOM
M  V30 1 C -1.7578 -0.7812 0.0000 0
M  V30 2 C -0.5859 0.1953 0.0000 0
M  V30 3 C 1.7578 0.1953 0.0000 0
M  V30 4 N -0.7812 1.3672 0.0000 0
M  V30 5 N 0.3906 -0.5859 0.0000 0
M  V30 6 N 2.7344 -0.5859 0.0000 0
M  V30 7 O -3.1250 -0.3906 0.0000 0
M  V30 8 H -1.5625 -1.9531 0.0000 0
M  V30 9 H -1.5625 1.7578 0.0000 0
M  V30 10 H 0.5859 -1.7578 0.0000 0
M  V30 11 H 1.7578 1.1719 0.0000 0
M  V30 12 H 3.5156 0.1953 0.0000 0
M  V30 END ATOM
M  V30 BEGIN BOND
M  V30 1 2 1 2
M  V30 2 1 1 7
M  V30 3 1 1 8
M  V30 4 1 2 4
M  V30 5 2 2 5
M  V30 6 3 3 5
M  V30 7 2 3 6
M  V30 8 1 3 11
M  V30 9 1 4 9
M  V30 10 1 5 10
M  V30 11 1 6 12
M  V30 END BOND
M  V30 END CTAB
M  END
>  <ID>
146
$$$$
Structure_147
Score 	 10.0, smilesprid 	smiles	 smilestrue 	smiles	 similartanimoto 	0	 similardice 	0

   12   11  0  0  0  0            999 V3000
M  V30 BEGIN CTAB
M  V30 COUNTS 12 11 0 0 0
M  V30 BEGIN ATOM
M  V30 1 C -1.7578 -0.7812 0.0000 0
M  V30 2 C -0.5859 0.1953 0.0000 0
M  V30 3 C 1.7578 0.1953 0.0000 0
M  V30 4 N -0.7812 1.3672 0.0000 0
M  V30 5 N 0.3906 -0.5859 0.0000 0
M  V30 6 N 2.7344 -0.5859 0.0000 0
M  V30 7 O -3.1250 -0.3906 0.0000 0
M  V30 8 H -1.5625 -1.9531 0.0000 0
M  V30 9 H -1.5625 1.7578 0.0000 0
M  V30 10 H 0.5859 -1.7578 0.0000 0
M  V30 11 H 1.7578 1.1719 0.0000 0
M  V30 12 H 3.5156 0.1953 0.0000 0
M  V30 END ATOM
M  V30 BEGIN BOND
M  V30 1 3 1 2
M  V30 2 1 1 7
M  V30 3 1 1 8
M  V30 4 1 2 4
M  V30 5 2 2 5
M  V30 6 3 3 5
M  V30 7 2 3 6
M  V30 8 1 3 11
M  V30 9 1 4 9
M  V30 10 1 5 10
M  V30 11 1 6 12
M  V30 END BOND
M  V30 END CTAB
M  END
>  <ID>
147
$$$$
Structure_148
Score 	 8.0, smilesprid 	smiles	 smilestrue 	smiles	 similartanimoto 	0	 similardice 	0

   12   11  0  0  0  0            999 V3000
M  V30 BEGIN CTAB
M  V30 COUNTS 12 11 0 0 0
M  V30 BEGIN ATOM
M  V30 1 C -1.7578 -0.7812 0.0000 0
M  V30 2 C -0.5859 0.1953 0.0000 0
M  V30 3 C 1.7578 0.1953 0.0000 0
M  V30 4 N -0.7812 1.3672 0.0000 0
M  V30 5 N 0.3906 -0.5859 0.0000 0
M  V30 6 N 2.7344 -0.5859 0.0000 0
M  V30 7 O -3.1250 -0.3906 0.0000 0
M  V30 8 H -1.5625 -1.9531 0.0000 0
M  V30 9 H -1.5625 1.7578 0.0000 0
M  V30 10 H 0.5859 -1.7578 0.0000 0
M  V30 11 H 1.7578 1.1719 0.0000 0
M  V30 12 H 3.5156 0.1953 0.0000 0
M  V30 END ATOM
M  V30 BEGIN BOND
M  V30 1 1 1 2
M  V30 2 1 1 7
M  V30 3 1 1 8
M  V30 4 2 2 4
M  V30 5 2 2 5
M  V30 6 3 3 5
M  V30 7 2 3 6
M  V30 8 1 3 11
M  V30 9 1 4 9
M  V30 10 1 5 10
M  V30 11 1 6 12
M  V30 END BOND
M  V30 END CTAB
M  END
>  <ID>
148
$$$$
Structure_149
Score 	 8.0, smilesprid 	smiles	 smilestrue 	smiles	 similartanimoto 	0	 similardice 	0

   12   11  0  0  0  0            999 V3000
M  V30 BEGIN CTAB
M  V30 COUNTS 12 11 0 0 0
M  V30 BEGIN ATOM
M  V30 1 C -1.7578 -0.7812 0.0000 0
M  V30 2 C -0.5859 0.1953 0.0000 0
M  V30 3 C 1.7578 0.1953 0.0000 0
M  V30 4 N -0.7812 1.3672 0.0000 0
M  V30 5 N 0.3906 -0.5859 0.0000 0
M  V30 6 N 2.7344 -0.5859 0.0000 0
M  V30 7 O -3.1250 -0.3906 0.0000 0
M  V30 8 H -1.5625 -1.9531 0.0000 0
M  V30 9 H -1.5625 1.7578 0.0000 0
M  V30 10 H 0.5859 -1.7578 0.0000 0
M  V30 11 H 1.7578 1.1719 0.0000 0
M  V30 12 H 3.5156 0.1953 0.0000 0
M  V30 END ATOM
M  V30 BEGIN BOND
M  V30 1 2 1 2
M  V30 2 1 1 7
M  V30 3 1 1 8
M  V30 4 2 2 4
M  V30 5 2 2 5
M  V30 6 3 3 5
M  V30 7 2 3 6
M  V30 8 1 3 11
M  V30 9 1 4 9
M  V30 10 1 5 10
M  V30 11 1 6 12
M  V30 END BOND
M  V30 END CTAB
M  END
>  <ID>
149
$$$$
Structure_150
Score 	 10.0, smilesprid 	smiles	 smilestrue 	smiles	 similartanimoto 	0	 similardice 	0

   12   11  0  0  0  0            999 V3000
M  V30 BEGIN CTAB
M  V30 COUNTS 12 11 0 0 0
M  V30 BEGIN ATOM
M  V30 1 C -1.7578 -0.7812 0.0000 0
M  V30 2 C -0.5859 0.1953 0.0000 0
M  V30 3 C 1.7578 0.1953 0.0000 0
M  V30 4 N -0.7812 1.3672 0.0000 0
M  V30 5 N 0.3906 -0.5859 0.0000 0
M  V30 6 N 2.7344 -0.5859 0.0000 0
M  V30 7 O -3.1250 -0.3906 0.0000 0
M  V30 8 H -1.5625 -1.9531 0.0000 0
M  V30 9 H -1.5625 1.7578 0.0000 0
M  V30 10 H 0.5859 -1.7578 0.0000 0
M  V30 11 H 1.7578 1.1719 0.0000 0
M  V30 12 H 3.5156 0.1953 0.0000 0
M  V30 END ATOM
M  V30 BEGIN BOND
M  V30 1 3 1 2
M  V30 2 1 1 7
M  V30 3 1 1 8
M  V30 4 2 2 4
M  V30 5 2 2 5
M  V30 6 3 3 5
M  V30 7 2 3 6
M  V30 8 1 3 11
M  V30 9 1 4 9
M  V30 10 1 5 10
M  V30 11 1 6 12
M  V30 END BOND
M  V30 END CTAB
M  END
>  <ID>
150
$$$$
Structure_151
Score 	 10.0, smilesprid 	smiles	 smilestrue 	smiles	 similartanimoto 	0	 similardice 	0

   12   11  0  0  0  0            999 V3000
M  V30 BEGIN CTAB
M  V30 COUNTS 12 11 0 0 0
M  V30 BEGIN ATOM
M  V30 1 C -1.7578 -0.7812 0.0000 0
M  V30 2 C -0.5859 0.1953 0.0000 0
M  V30 3 C 1.7578 0.1953 0.0000 0
M  V30 4 N -0.7812 1.3672 0.0000 0
M  V30 5 N 0.3906 -0.5859 0.0000 0
M  V30 6 N 2.7344 -0.5859 0.0000 0
M  V30 7 O -3.1250 -0.3906 0.0000 0
M  V30 8 H -1.5625 -1.9531 0.0000 0
M  V30 9 H -1.5625 1.7578 0.0000 0
M  V30 10 H 0.5859 -1.7578 0.0000 0
M  V30 11 H 1.7578 1.1719 0.0000 0
M  V30 12 H 3.5156 0.1953 0.0000 0
M  V30 END ATOM
M  V30 BEGIN BOND
M  V30 1 1 1 2
M  V30 2 1 1 7
M  V30 3 1 1 8
M  V30 4 3 2 4
M  V30 5 2 2 5
M  V30 6 3 3 5
M  V30 7 2 3 6
M  V30 8 1 3 11
M  V30 9 1 4 9
M  V30 10 1 5 10
M  V30 11 1 6 12
M  V30 END BOND
M  V30 END CTAB
M  END
>  <ID>
151
$$$$
Structure_152
Score 	 10.0, smilesprid 	smiles	 smilestrue 	smiles	 similartanimoto 	0	 similardice 	0

   12   11  0  0  0  0            999 V3000
M  V30 BEGIN CTAB
M  V30 COUNTS 12 11 0 0 0
M  V30 BEGIN ATOM
M  V30 1 C -1.7578 -0.7812 0.0000 0
M  V30 2 C -0.5859 0.1953 0.0000 0
M  V30 3 C 1.7578 0.1953 0.0000 0
M  V30 4 N -0.7812 1.3672 0.0000 0
M  V30 5 N 0.3906 -0.5859 0.0000 0
M  V30 6 N 2.7344 -0.5859 0.0000 0
M  V30 7 O -3.1250 -0.3906 0.0000 0
M  V30 8 H -1.5625 -1.9531 0.0000 0
M  V30 9 H -1.5625 1.7578 0.0000 0
M  V30 10 H 0.5859 -1.7578 0.0000 0
M  V30 11 H 1.7578 1.1719 0.0000 0
M  V30 12 H 3.5156 0.1953 0.0000 0
M  V30 END ATOM
M  V30 BEGIN BOND
M  V30 1 2 1 2
M  V30 2 1 1 7
M  V30 3 1 1 8
M  V30 4 3 2 4
M  V30 5 2 2 5
M  V30 6 3 3 5
M  V30 7 2 3 6
M  V30 8 1 3 11
M  V30 9 1 4 9
M  V30 10 1 5 10
M  V30 11 1 6 12
M  V30 END BOND
M  V30 END CTAB
M  END
>  <ID>
152
$$$$
Structure_153
Score 	 12.0, smilesprid 	smiles	 smilestrue 	smiles	 similartanimoto 	0	 similardice 	0

   12   11  0  0  0  0            999 V3000
M  V30 BEGIN CTAB
M  V30 COUNTS 12 11 0 0 0
M  V30 BEGIN ATOM
M  V30 1 C -1.7578 -0.7812 0.0000 0
M  V30 2 C -0.5859 0.1953 0.0000 0
M  V30 3 C 1.7578 0.1953 0.0000 0
M  V30 4 N -0.7812 1.3672 0.0000 0
M  V30 5 N 0.3906 -0.5859 0.0000 0
M  V30 6 N 2.7344 -0.5859 0.0000 0
M  V30 7 O -3.1250 -0.3906 0.0000 0
M  V30 8 H -1.5625 -1.9531 0.0000 0
M  V30 9 H -1.5625 1.7578 0.0000 0
M  V30 10 H 0.5859 -1.7578 0.0000 0
M  V30 11 H 1.7578 1.1719 0.0000 0
M  V30 12 H 3.5156 0.1953 0.0000 0
M  V30 END ATOM
M  V30 BEGIN BOND
M  V30 1 3 1 2
M  V30 2 1 1 7
M  V30 3 1 1 8
M  V30 4 3 2 4
M  V30 5 2 2 5
M  V30 6 3 3 5
M  V30 7 2 3 6
M  V30 8 1 3 11
M  V30 9 1 4 9
M  V30 10 1 5 10
M  V30 11 1 6 12
M  V30 END BOND
M  V30 END CTAB
M  END
>  <ID>
153
$$$$
Structure_154
Score 	 10.0, smilesprid 	smiles	 smilestrue 	smiles	 similartanimoto 	0	 similardice 	0

   12   11  0  0  0  0            999 V3000
M  V30 BEGIN CTAB
M  V30 COUNTS 12 11 0 0 0
M  V30 BEGIN ATOM
M  V30 1 C -1.7578 -0.7812 0.0000 0
M  V30 2 C -0.5859 0.1953 0.0000 0
M  V30 3 C 1.7578 0.1953 0.0000 0
M  V30 4 N -0.7812 1.3672 0.0000 0
M  V30 5 N 0.3906 -0.5859 0.0000 0
M  V30 6 N 2.7344 -0.5859 0.0000 0
M  V30 7 O -3.1250 -0.3906 0.0000 0
M  V30 8 H -1.5625 -1.9531 0.0000 0
M  V30 9 H -1.5625 1.7578 0.0000 0
M  V30 10 H 0.5859 -1.7578 0.0000 0
M  V30 11 H 1.7578 1.1719 0.0000 0
M  V30 12 H 3.5156 0.1953 0.0000 0
M  V30 END ATOM
M  V30 BEGIN BOND
M  V30 1 1 1 2
M  V30 2 1 1 7
M  V30 3 1 1 8
M  V30 4 1 2 4
M  V30 5 3 2 5
M  V30 6 3 3 5
M  V30 7 2 3 6
M  V30 8 1 3 11
M  V30 9 1 4 9
M  V30 10 1 5 10
M  V30 11 1 6 12
M  V30 END BOND
M  V30 END CTAB
M  END
>  <ID>
154
$$$$
Structure_155
Score 	 10.0, smilesprid 	smiles	 smilestrue 	smiles	 similartanimoto 	0	 similardice 	0

   12   11  0  0  0  0            999 V3000
M  V30 BEGIN CTAB
M  V30 COUNTS 12 11 0 0 0
M  V30 BEGIN ATOM
M  V30 1 C -1.7578 -0.7812 0.0000 0
M  V30 2 C -0.5859 0.1953 0.0000 0
M  V30 3 C 1.7578 0.1953 0.0000 0
M  V30 4 N -0.7812 1.3672 0.0000 0
M  V30 5 N 0.3906 -0.5859 0.0000 0
M  V30 6 N 2.7344 -0.5859 0.0000 0
M  V30 7 O -3.1250 -0.3906 0.0000 0
M  V30 8 H -1.5625 -1.9531 0.0000 0
M  V30 9 H -1.5625 1.7578 0.0000 0
M  V30 10 H 0.5859 -1.7578 0.0000 0
M  V30 11 H 1.7578 1.1719 0.0000 0
M  V30 12 H 3.5156 0.1953 0.0000 0
M  V30 END ATOM
M  V30 BEGIN BOND
M  V30 1 2 1 2
M  V30 2 1 1 7
M  V30 3 1 1 8
M  V30 4 1 2 4
M  V30 5 3 2 5
M  V30 6 3 3 5
M  V30 7 2 3 6
M  V30 8 1 3 11
M  V30 9 1 4 9
M  V30 10 1 5 10
M  V30 11 1 6 12
M  V30 END BOND
M  V30 END CTAB
M  END
>  <ID>
155
$$$$
Structure_156
Score 	 12.0, smilesprid 	smiles	 smilestrue 	smiles	 similartanimoto 	0	 similardice 	0

   12   11  0  0  0  0            999 V3000
M  V30 BEGIN CTAB
M  V30 COUNTS 12 11 0 0 0
M  V30 BEGIN ATOM
M  V30 1 C -1.7578 -0.7812 0.0000 0
M  V30 2 C -0.5859 0.1953 0.0000 0
M  V30 3 C 1.7578 0.1953 0.0000 0
M  V30 4 N -0.7812 1.3672 0.0000 0
M  V30 5 N 0.3906 -0.5859 0.0000 0
M  V30 6 N 2.7344 -0.5859 0.0000 0
M  V30 7 O -3.1250 -0.3906 0.0000 0
M  V30 8 H -1.5625 -1.9531 0.0000 0
M  V30 9 H -1.5625 1.7578 0.0000 0
M  V30 10 H 0.5859 -1.7578 0.0000 0
M  V30 11 H 1.7578 1.1719 0.0000 0
M  V30 12 H 3.5156 0.1953 0.0000 0
M  V30 END ATOM
M  V30 BEGIN BOND
M  V30 1 3 1 2
M  V30 2 1 1 7
M  V30 3 1 1 8
M  V30 4 1 2 4
M  V30 5 3 2 5
M  V30 6 3 3 5
M  V30 7 2 3 6
M  V30 8 1 3 11
M  V30 9 1 4 9
M  V30 10 1 5 10
M  V30 11 1 6 12
M  V30 END BOND
M  V30 END CTAB
M  END
>  <ID>
156
$$$$
Structure_157
Score 	 10.0, smilesprid 	smiles	 smilestrue 	smiles	 similartanimoto 	0	 similardice 	0

   12   11  0  0  0  0            999 V3000
M  V30 BEGIN CTAB
M  V30 COUNTS 12 11 0 0 0
M  V30 BEGIN ATOM
M  V30 1 C -1.7578 -0.7812 0.0000 0
M  V30 2 C -0.5859 0.1953 0.0000 0
M  V30 3 C 1.7578 0.1953 0.0000 0
M  V30 4 N -0.7812 1.3672 0.0000 0
M  V30 5 N 0.3906 -0.5859 0.0000 0
M  V30 6 N 2.7344 -0.5859 0.0000 0
M  V30 7 O -3.1250 -0.3906 0.0000 0
M  V30 8 H -1.5625 -1.9531 0.0000 0
M  V30 9 H -1.5625 1.7578 0.0000 0
M  V30 10 H 0.5859 -1.7578 0.0000 0
M  V30 11 H 1.7578 1.1719 0.0000 0
M  V30 12 H 3.5156 0.1953 0.0000 0
M  V30 END ATOM
M  V30 BEGIN BOND
M  V30 1 1 1 2
M  V30 2 1 1 7
M  V30 3 1 1 8
M  V30 4 2 2 4
M  V30 5 3 2 5
M  V30 6 3 3 5
M  V30 7 2 3 6
M  V30 8 1 3 11
M  V30 9 1 4 9
M  V30 10 1 5 10
M  V30 11 1 6 12
M  V30 END BOND
M  V30 END CTAB
M  END
>  <ID>
157
$$$$
Structure_158
Score 	 10.0, smilesprid 	smiles	 smilestrue 	smiles	 similartanimoto 	0	 similardice 	0

   12   11  0  0  0  0            999 V3000
M  V30 BEGIN CTAB
M  V30 COUNTS 12 11 0 0 0
M  V30 BEGIN ATOM
M  V30 1 C -1.7578 -0.7812 0.0000 0
M  V30 2 C -0.5859 0.1953 0.0000 0
M  V30 3 C 1.7578 0.1953 0.0000 0
M  V30 4 N -0.7812 1.3672 0.0000 0
M  V30 5 N 0.3906 -0.5859 0.0000 0
M  V30 6 N 2.7344 -0.5859 0.0000 0
M  V30 7 O -3.1250 -0.3906 0.0000 0
M  V30 8 H -1.5625 -1.9531 0.0000 0
M  V30 9 H -1.5625 1.7578 0.0000 0
M  V30 10 H 0.5859 -1.7578 0.0000 0
M  V30 11 H 1.7578 1.1719 0.0000 0
M  V30 12 H 3.5156 0.1953 0.0000 0
M  V30 END ATOM
M  V30 BEGIN BOND
M  V30 1 2 1 2
M  V30 2 1 1 7
M  V30 3 1 1 8
M  V30 4 2 2 4
M  V30 5 3 2 5
M  V30 6 3 3 5
M  V30 7 2 3 6
M  V30 8 1 3 11
M  V30 9 1 4 9
M  V30 10 1 5 10
M  V30 11 1 6 12
M  V30 END BOND
M  V30 END CTAB
M  END
>  <ID>
158
$$$$
Structure_159
Score 	 12.0, smilesprid 	smiles	 smilestrue 	smiles	 similartanimoto 	0	 similardice 	0

   12   11  0  0  0  0            999 V3000
M  V30 BEGIN CTAB
M  V30 COUNTS 12 11 0 0 0
M  V30 BEGIN ATOM
M  V30 1 C -1.7578 -0.7812 0.0000 0
M  V30 2 C -0.5859 0.1953 0.0000 0
M  V30 3 C 1.7578 0.1953 0.0000 0
M  V30 4 N -0.7812 1.3672 0.0000 0
M  V30 5 N 0.3906 -0.5859 0.0000 0
M  V30 6 N 2.7344 -0.5859 0.0000 0
M  V30 7 O -3.1250 -0.3906 0.0000 0
M  V30 8 H -1.5625 -1.9531 0.0000 0
M  V30 9 H -1.5625 1.7578 0.0000 0
M  V30 10 H 0.5859 -1.7578 0.0000 0
M  V30 11 H 1.7578 1.1719 0.0000 0
M  V30 12 H 3.5156 0.1953 0.0000 0
M  V30 END ATOM
M  V30 BEGIN BOND
M  V30 1 3 1 2
M  V30 2 1 1 7
M  V30 3 1 1 8
M  V30 4 2 2 4
M  V30 5 3 2 5
M  V30 6 3 3 5
M  V30 7 2 3 6
M  V30 8 1 3 11
M  V30 9 1 4 9
M  V30 10 1 5 10
M  V30 11 1 6 12
M  V30 END BOND
M  V30 END CTAB
M  END
>  <ID>
159
$$$$
Structure_160
Score 	 12.0, smilesprid 	smiles	 smilestrue 	smiles	 similartanimoto 	0	 similardice 	0

   12   11  0  0  0  0            999 V3000
M  V30 BEGIN CTAB
M  V30 COUNTS 12 11 0 0 0
M  V30 BEGIN ATOM
M  V30 1 C -1.7578 -0.7812 0.0000 0
M  V30 2 C -0.5859 0.1953 0.0000 0
M  V30 3 C 1.7578 0.1953 0.0000 0
M  V30 4 N -0.7812 1.3672 0.0000 0
M  V30 5 N 0.3906 -0.5859 0.0000 0
M  V30 6 N 2.7344 -0.5859 0.0000 0
M  V30 7 O -3.1250 -0.3906 0.0000 0
M  V30 8 H -1.5625 -1.9531 0.0000 0
M  V30 9 H -1.5625 1.7578 0.0000 0
M  V30 10 H 0.5859 -1.7578 0.0000 0
M  V30 11 H 1.7578 1.1719 0.0000 0
M  V30 12 H 3.5156 0.1953 0.0000 0
M  V30 END ATOM
M  V30 BEGIN BOND
M  V30 1 1 1 2
M  V30 2 1 1 7
M  V30 3 1 1 8
M  V30 4 3 2 4
M  V30 5 3 2 5
M  V30 6 3 3 5
M  V30 7 2 3 6
M  V30 8 1 3 11
M  V30 9 1 4 9
M  V30 10 1 5 10
M  V30 11 1 6 12
M  V30 END BOND
M  V30 END CTAB
M  END
>  <ID>
160
$$$$
Structure_161
Score 	 12.0, smilesprid 	smiles	 smilestrue 	smiles	 similartanimoto 	0	 similardice 	0

   12   11  0  0  0  0            999 V3000
M  V30 BEGIN CTAB
M  V30 COUNTS 12 11 0 0 0
M  V30 BEGIN ATOM
M  V30 1 C -1.7578 -0.7812 0.0000 0
M  V30 2 C -0.5859 0.1953 0.0000 0
M  V30 3 C 1.7578 0.1953 0.0000 0
M  V30 4 N -0.7812 1.3672 0.0000 0
M  V30 5 N 0.3906 -0.5859 0.0000 0
M  V30 6 N 2.7344 -0.5859 0.0000 0
M  V30 7 O -3.1250 -0.3906 0.0000 0
M  V30 8 H -1.5625 -1.9531 0.0000 0
M  V30 9 H -1.5625 1.7578 0.0000 0
M  V30 10 H 0.5859 -1.7578 0.0000 0
M  V30 11 H 1.7578 1.1719 0.0000 0
M  V30 12 H 3.5156 0.1953 0.0000 0
M  V30 END ATOM
M  V30 BEGIN BOND
M  V30 1 2 1 2
M  V30 2 1 1 7
M  V30 3 1 1 8
M  V30 4 3 2 4
M  V30 5 3 2 5
M  V30 6 3 3 5
M  V30 7 2 3 6
M  V30 8 1 3 11
M  V30 9 1 4 9
M  V30 10 1 5 10
M  V30 11 1 6 12
M  V30 END BOND
M  V30 END CTAB
M  END
>  <ID>
161
$$$$
Structure_162
Score 	 14.0, smilesprid 	smiles	 smilestrue 	smiles	 similartanimoto 	0	 similardice 	0

   12   11  0  0  0  0            999 V3000
M  V30 BEGIN CTAB
M  V30 COUNTS 12 11 0 0 0
M  V30 BEGIN ATOM
M  V30 1 C -1.7578 -0.7812 0.0000 0
M  V30 2 C -0.5859 0.1953 0.0000 0
M  V30 3 C 1.7578 0.1953 0.0000 0
M  V30 4 N -0.7812 1.3672 0.0000 0
M  V30 5 N 0.3906 -0.5859 0.0000 0
M  V30 6 N 2.7344 -0.5859 0.0000 0
M  V30 7 O -3.1250 -0.3906 0.0000 0
M  V30 8 H -1.5625 -1.9531 0.0000 0
M  V30 9 H -1.5625 1.7578 0.0000 0
M  V30 10 H 0.5859 -1.7578 0.0000 0
M  V30 11 H 1.7578 1.1719 0.0000 0
M  V30 12 H 3.5156 0.1953 0.0000 0
M  V30 END ATOM
M  V30 BEGIN BOND
M  V30 1 3 1 2
M  V30 2 1 1 7
M  V30 3 1 1 8
M  V30 4 3 2 4
M  V30 5 3 2 5
M  V30 6 3 3 5
M  V30 7 2 3 6
M  V30 8 1 3 11
M  V30 9 1 4 9
M  V30 10 1 5 10
M  V30 11 1 6 12
M  V30 END BOND
M  V30 END CTAB
M  END
>  <ID>
162
$$$$
Structure_163
Score 	 6.0, smilesprid 	smiles	 smilestrue 	smiles	 similartanimoto 	0	 similardice 	0

   12   11  0  0  0  0            999 V3000
M  V30 BEGIN CTAB
M  V30 COUNTS 12 11 0 0 0
M  V30 BEGIN ATOM
M  V30 1 C -1.7578 -0.7812 0.0000 0
M  V30 2 C -0.5859 0.1953 0.0000 0
M  V30 3 C 1.7578 0.1953 0.0000 0
M  V30 4 N -0.7812 1.3672 0.0000 0
M  V30 5 N 0.3906 -0.5859 0.0000 0
M  V30 6 N 2.7344 -0.5859 0.0000 0
M  V30 7 O -3.1250 -0.3906 0.0000 0
M  V30 8 H -1.5625 -1.9531 0.0000 0
M  V30 9 H -1.5625 1.7578 0.0000 0
M  V30 10 H 0.5859 -1.7578 0.0000 0
M  V30 11 H 1.7578 1.1719 0.0000 0
M  V30 12 H 3.5156 0.1953 0.0000 0
M  V30 END ATOM
M  V30 BEGIN BOND
M  V30 1 1 1 2
M  V30 2 1 1 7
M  V30 3 1 1 8
M  V30 4 1 2 4
M  V30 5 1 2 5
M  V30 6 1 3 5
M  V30 7 3 3 6
M  V30 8 1 3 11
M  V30 9 1 4 9
M  V30 10 1 5 10
M  V30 11 1 6 12
M  V30 END BOND
M  V30 END CTAB
M  END
>  <ID>
163
$$$$
Structure_164
Score 	 4.0, smilesprid 	smiles	 smilestrue 	smiles	 similartanimoto 	0	 similardice 	0

   12   11  0  0  0  0            999 V3000
M  V30 BEGIN CTAB
M  V30 COUNTS 12 11 0 0 0
M  V30 BEGIN ATOM
M  V30 1 C -1.7578 -0.7812 0.0000 0
M  V30 2 C -0.5859 0.1953 0.0000 0
M  V30 3 C 1.7578 0.1953 0.0000 0
M  V30 4 N -0.7812 1.3672 0.0000 0
M  V30 5 N 0.3906 -0.5859 0.0000 0
M  V30 6 N 2.7344 -0.5859 0.0000 0
M  V30 7 O -3.1250 -0.3906 0.0000 0
M  V30 8 H -1.5625 -1.9531 0.0000 0
M  V30 9 H -1.5625 1.7578 0.0000 0
M  V30 10 H 0.5859 -1.7578 0.0000 0
M  V30 11 H 1.7578 1.1719 0.0000 0
M  V30 12 H 3.5156 0.1953 0.0000 0
M  V30 END ATOM
M  V30 BEGIN BOND
M  V30 1 2 1 2
M  V30 2 1 1 7
M  V30 3 1 1 8
M  V30 4 1 2 4
M  V30 5 1 2 5
M  V30 6 1 3 5
M  V30 7 3 3 6
M  V30 8 1 3 11
M  V30 9 1 4 9
M  V30 10 1 5 10
M  V30 11 1 6 12
M  V30 END BOND
M  V30 END CTAB
M  END
>  <ID>
164
$$$$
Structure_165
Score 	 6.0, smilesprid 	smiles	 smilestrue 	smiles	 similartanimoto 	0	 similardice 	0

   12   11  0  0  0  0            999 V3000
M  V30 BEGIN CTAB
M  V30 COUNTS 12 11 0 0 0
M  V30 BEGIN ATOM
M  V30 1 C -1.7578 -0.7812 0.0000 0
M  V30 2 C -0.5859 0.1953 0.0000 0
M  V30 3 C 1.7578 0.1953 0.0000 0
M  V30 4 N -0.7812 1.3672 0.0000 0
M  V30 5 N 0.3906 -0.5859 0.0000 0
M  V30 6 N 2.7344 -0.5859 0.0000 0
M  V30 7 O -3.1250 -0.3906 0.0000 0
M  V30 8 H -1.5625 -1.9531 0.0000 0
M  V30 9 H -1.5625 1.7578 0.0000 0
M  V30 10 H 0.5859 -1.7578 0.0000 0
M  V30 11 H 1.7578 1.1719 0.0000 0
M  V30 12 H 3.5156 0.1953 0.0000 0
M  V30 END ATOM
M  V30 BEGIN BOND
M  V30 1 3 1 2
M  V30 2 1 1 7
M  V30 3 1 1 8
M  V30 4 1 2 4
M  V30 5 1 2 5
M  V30 6 1 3 5
M  V30 7 3 3 6
M  V30 8 1 3 11
M  V30 9 1 4 9
M  V30 10 1 5 10
M  V30 11 1 6 12
M  V30 END BOND
M  V30 END CTAB
M  END
>  <ID>
165
$$$$
Structure_166
Score 	 4.0, smilesprid 	smiles	 smilestrue 	smiles	 similartanimoto 	0	 similardice 	0

   12   11  0  0  0  0            999 V3000
M  V30 BEGIN CTAB
M  V30 COUNTS 12 11 0 0 0
M  V30 BEGIN ATOM
M  V30 1 C -1.7578 -0.7812 0.0000 0
M  V30 2 C -0.5859 0.1953 0.0000 0
M  V30 3 C 1.7578 0.1953 0.0000 0
M  V30 4 N -0.7812 1.3672 0.0000 0
M  V30 5 N 0.3906 -0.5859 0.0000 0
M  V30 6 N 2.7344 -0.5859 0.0000 0
M  V30 7 O -3.1250 -0.3906 0.0000 0
M  V30 8 H -1.5625 -1.9531 0.0000 0
M  V30 9 H -1.5625 1.7578 0.0000 0
M  V30 10 H 0.5859 -1.7578 0.0000 0
M  V30 11 H 1.7578 1.1719 0.0000 0
M  V30 12 H 3.5156 0.1953 0.0000 0
M  V30 END ATOM
M  V30 BEGIN BOND
M  V30 1 1 1 2
M  V30 2 1 1 7
M  V30 3 1 1 8
M  V30 4 2 2 4
M  V30 5 1 2 5
M  V30 6 1 3 5
M  V30 7 3 3 6
M  V30 8 1 3 11
M  V30 9 1 4 9
M  V30 10 1 5 10
M  V30 11 1 6 12
M  V30 END BOND
M  V30 END CTAB
M  END
>  <ID>
166
$$$$
Structure_167
Score 	 4.0, smilesprid 	smiles	 smilestrue 	smiles	 similartanimoto 	0	 similardice 	0

   12   11  0  0  0  0            999 V3000
M  V30 BEGIN CTAB
M  V30 COUNTS 12 11 0 0 0
M  V30 BEGIN ATOM
M  V30 1 C -1.7578 -0.7812 0.0000 0
M  V30 2 C -0.5859 0.1953 0.0000 0
M  V30 3 C 1.7578 0.1953 0.0000 0
M  V30 4 N -0.7812 1.3672 0.0000 0
M  V30 5 N 0.3906 -0.5859 0.0000 0
M  V30 6 N 2.7344 -0.5859 0.0000 0
M  V30 7 O -3.1250 -0.3906 0.0000 0
M  V30 8 H -1.5625 -1.9531 0.0000 0
M  V30 9 H -1.5625 1.7578 0.0000 0
M  V30 10 H 0.5859 -1.7578 0.0000 0
M  V30 11 H 1.7578 1.1719 0.0000 0
M  V30 12 H 3.5156 0.1953 0.0000 0
M  V30 END ATOM
M  V30 BEGIN BOND
M  V30 1 2 1 2
M  V30 2 1 1 7
M  V30 3 1 1 8
M  V30 4 2 2 4
M  V30 5 1 2 5
M  V30 6 1 3 5
M  V30 7 3 3 6
M  V30 8 1 3 11
M  V30 9 1 4 9
M  V30 10 1 5 10
M  V30 11 1 6 12
M  V30 END BOND
M  V30 END CTAB
M  END
>  <ID>
167
$$$$
Structure_168
Score 	 6.0, smilesprid 	smiles	 smilestrue 	smiles	 similartanimoto 	0	 similardice 	0

   12   11  0  0  0  0            999 V3000
M  V30 BEGIN CTAB
M  V30 COUNTS 12 11 0 0 0
M  V30 BEGIN ATOM
M  V30 1 C -1.7578 -0.7812 0.0000 0
M  V30 2 C -0.5859 0.1953 0.0000 0
M  V30 3 C 1.7578 0.1953 0.0000 0
M  V30 4 N -0.7812 1.3672 0.0000 0
M  V30 5 N 0.3906 -0.5859 0.0000 0
M  V30 6 N 2.7344 -0.5859 0.0000 0
M  V30 7 O -3.1250 -0.3906 0.0000 0
M  V30 8 H -1.5625 -1.9531 0.0000 0
M  V30 9 H -1.5625 1.7578 0.0000 0
M  V30 10 H 0.5859 -1.7578 0.0000 0
M  V30 11 H 1.7578 1.1719 0.0000 0
M  V30 12 H 3.5156 0.1953 0.0000 0
M  V30 END ATOM
M  V30 BEGIN BOND
M  V30 1 3 1 2
M  V30 2 1 1 7
M  V30 3 1 1 8
M  V30 4 2 2 4
M  V30 5 1 2 5
M  V30 6 1 3 5
M  V30 7 3 3 6
M  V30 8 1 3 11
M  V30 9 1 4 9
M  V30 10 1 5 10
M  V30 11 1 6 12
M  V30 END BOND
M  V30 END CTAB
M  END
>  <ID>
168
$$$$
Structure_169
Score 	 6.0, smilesprid 	smiles	 smilestrue 	smiles	 similartanimoto 	0	 similardice 	0

   12   11  0  0  0  0            999 V3000
M  V30 BEGIN CTAB
M  V30 COUNTS 12 11 0 0 0
M  V30 BEGIN ATOM
M  V30 1 C -1.7578 -0.7812 0.0000 0
M  V30 2 C -0.5859 0.1953 0.0000 0
M  V30 3 C 1.7578 0.1953 0.0000 0
M  V30 4 N -0.7812 1.3672 0.0000 0
M  V30 5 N 0.3906 -0.5859 0.0000 0
M  V30 6 N 2.7344 -0.5859 0.0000 0
M  V30 7 O -3.1250 -0.3906 0.0000 0
M  V30 8 H -1.5625 -1.9531 0.0000 0
M  V30 9 H -1.5625 1.7578 0.0000 0
M  V30 10 H 0.5859 -1.7578 0.0000 0
M  V30 11 H 1.7578 1.1719 0.0000 0
M  V30 12 H 3.5156 0.1953 0.0000 0
M  V30 END ATOM
M  V30 BEGIN BOND
M  V30 1 1 1 2
M  V30 2 1 1 7
M  V30 3 1 1 8
M  V30 4 3 2 4
M  V30 5 1 2 5
M  V30 6 1 3 5
M  V30 7 3 3 6
M  V30 8 1 3 11
M  V30 9 1 4 9
M  V30 10 1 5 10
M  V30 11 1 6 12
M  V30 END BOND
M  V30 END CTAB
M  END
>  <ID>
169
$$$$
Structure_170
Score 	 6.0, smilesprid 	smiles	 smilestrue 	smiles	 similartanimoto 	0	 similardice 	0

   12   11  0  0  0  0            999 V3000
M  V30 BEGIN CTAB
M  V30 COUNTS 12 11 0 0 0
M  V30 BEGIN ATOM
M  V30 1 C -1.7578 -0.7812 0.0000 0
M  V30 2 C -0.5859 0.1953 0.0000 0
M  V30 3 C 1.7578 0.1953 0.0000 0
M  V30 4 N -0.7812 1.3672 0.0000 0
M  V30 5 N 0.3906 -0.5859 0.0000 0
M  V30 6 N 2.7344 -0.5859 0.0000 0
M  V30 7 O -3.1250 -0.3906 0.0000 0
M  V30 8 H -1.5625 -1.9531 0.0000 0
M  V30 9 H -1.5625 1.7578 0.0000 0
M  V30 10 H 0.5859 -1.7578 0.0000 0
M  V30 11 H 1.7578 1.1719 0.0000 0
M  V30 12 H 3.5156 0.1953 0.0000 0
M  V30 END ATOM
M  V30 BEGIN BOND
M  V30 1 2 1 2
M  V30 2 1 1 7
M  V30 3 1 1 8
M  V30 4 3 2 4
M  V30 5 1 2 5
M  V30 6 1 3 5
M  V30 7 3 3 6
M  V30 8 1 3 11
M  V30 9 1 4 9
M  V30 10 1 5 10
M  V30 11 1 6 12
M  V30 END BOND
M  V30 END CTAB
M  END
>  <ID>
170
$$$$
Structure_171
Score 	 8.0, smilesprid 	smiles	 smilestrue 	smiles	 similartanimoto 	0	 similardice 	0

   12   11  0  0  0  0            999 V3000
M  V30 BEGIN CTAB
M  V30 COUNTS 12 11 0 0 0
M  V30 BEGIN ATOM
M  V30 1 C -1.7578 -0.7812 0.0000 0
M  V30 2 C -0.5859 0.1953 0.0000 0
M  V30 3 C 1.7578 0.1953 0.0000 0
M  V30 4 N -0.7812 1.3672 0.0000 0
M  V30 5 N 0.3906 -0.5859 0.0000 0
M  V30 6 N 2.7344 -0.5859 0.0000 0
M  V30 7 O -3.1250 -0.3906 0.0000 0
M  V30 8 H -1.5625 -1.9531 0.0000 0
M  V30 9 H -1.5625 1.7578 0.0000 0
M  V30 10 H 0.5859 -1.7578 0.0000 0
M  V30 11 H 1.7578 1.1719 0.0000 0
M  V30 12 H 3.5156 0.1953 0.0000 0
M  V30 END ATOM
M  V30 BEGIN BOND
M  V30 1 3 1 2
M  V30 2 1 1 7
M  V30 3 1 1 8
M  V30 4 3 2 4
M  V30 5 1 2 5
M  V30 6 1 3 5
M  V30 7 3 3 6
M  V30 8 1 3 11
M  V30 9 1 4 9
M  V30 10 1 5 10
M  V30 11 1 6 12
M  V30 END BOND
M  V30 END CTAB
M  END
>  <ID>
171
$$$$
Structure_172
Score 	 6.0, smilesprid 	smiles	 smilestrue 	smiles	 similartanimoto 	0	 similardice 	0

   12   11  0  0  0  0            999 V3000
M  V30 BEGIN CTAB
M  V30 COUNTS 12 11 0 0 0
M  V30 BEGIN ATOM
M  V30 1 C -1.7578 -0.7812 0.0000 0
M  V30 2 C -0.5859 0.1953 0.0000 0
M  V30 3 C 1.7578 0.1953 0.0000 0
M  V30 4 N -0.7812 1.3672 0.0000 0
M  V30 5 N 0.3906 -0.5859 0.0000 0
M  V30 6 N 2.7344 -0.5859 0.0000 0
M  V30 7 O -3.1250 -0.3906 0.0000 0
M  V30 8 H -1.5625 -1.9531 0.0000 0
M  V30 9 H -1.5625 1.7578 0.0000 0
M  V30 10 H 0.5859 -1.7578 0.0000 0
M  V30 11 H 1.7578 1.1719 0.0000 0
M  V30 12 H 3.5156 0.1953 0.0000 0
M  V30 END ATOM
M  V30 BEGIN BOND
M  V30 1 1 1 2
M  V30 2 1 1 7
M  V30 3 1 1 8
M  V30 4 1 2 4
M  V30 5 2 2 5
M  V30 6 1 3 5
M  V30 7 3 3 6
M  V30 8 1 3 11
M  V30 9 1 4 9
M  V30 10 1 5 10
M  V30 11 1 6 12
M  V30 END BOND
M  V30 END CTAB
M  END
>  <ID>
172
$$$$
Structure_173
Score 	 6.0, smilesprid 	smiles	 smilestrue 	smiles	 similartanimoto 	0	 similardice 	0

   12   11  0  0  0  0            999 V3000
M  V30 BEGIN CTAB
M  V30 COUNTS 12 11 0 0 0
M  V30 BEGIN ATOM
M  V30 1 C -1.7578 -0.7812 0.0000 0
M  V30 2 C -0.5859 0.1953 0.0000 0
M  V30 3 C 1.7578 0.1953 0.0000 0
M  V30 4 N -0.7812 1.3672 0.0000 0
M  V30 5 N 0.3906 -0.5859 0.0000 0
M  V30 6 N 2.7344 -0.5859 0.0000 0
M  V30 7 O -3.1250 -0.3906 0.0000 0
M  V30 8 H -1.5625 -1.9531 0.0000 0
M  V30 9 H -1.5625 1.7578 0.0000 0
M  V30 10 H 0.5859 -1.7578 0.0000 0
M  V30 11 H 1.7578 1.1719 0.0000 0
M  V30 12 H 3.5156 0.1953 0.0000 0
M  V30 END ATOM
M  V30 BEGIN BOND
M  V30 1 2 1 2
M  V30 2 1 1 7
M  V30 3 1 1 8
M  V30 4 1 2 4
M  V30 5 2 2 5
M  V30 6 1 3 5
M  V30 7 3 3 6
M  V30 8 1 3 11
M  V30 9 1 4 9
M  V30 10 1 5 10
M  V30 11 1 6 12
M  V30 END BOND
M  V30 END CTAB
M  END
>  <ID>
173
$$$$
Structure_174
Score 	 8.0, smilesprid 	smiles	 smilestrue 	smiles	 similartanimoto 	0	 similardice 	0

   12   11  0  0  0  0            999 V3000
M  V30 BEGIN CTAB
M  V30 COUNTS 12 11 0 0 0
M  V30 BEGIN ATOM
M  V30 1 C -1.7578 -0.7812 0.0000 0
M  V30 2 C -0.5859 0.1953 0.0000 0
M  V30 3 C 1.7578 0.1953 0.0000 0
M  V30 4 N -0.7812 1.3672 0.0000 0
M  V30 5 N 0.3906 -0.5859 0.0000 0
M  V30 6 N 2.7344 -0.5859 0.0000 0
M  V30 7 O -3.1250 -0.3906 0.0000 0
M  V30 8 H -1.5625 -1.9531 0.0000 0
M  V30 9 H -1.5625 1.7578 0.0000 0
M  V30 10 H 0.5859 -1.7578 0.0000 0
M  V30 11 H 1.7578 1.1719 0.0000 0
M  V30 12 H 3.5156 0.1953 0.0000 0
M  V30 END ATOM
M  V30 BEGIN BOND
M  V30 1 3 1 2
M  V30 2 1 1 7
M  V30 3 1 1 8
M  V30 4 1 2 4
M  V30 5 2 2 5
M  V30 6 1 3 5
M  V30 7 3 3 6
M  V30 8 1 3 11
M  V30 9 1 4 9
M  V30 10 1 5 10
M  V30 11 1 6 12
M  V30 END BOND
M  V30 END CTAB
M  END
>  <ID>
174
$$$$
Structure_175
Score 	 6.0, smilesprid 	smiles	 smilestrue 	smiles	 similartanimoto 	0	 similardice 	0

   12   11  0  0  0  0            999 V3000
M  V30 BEGIN CTAB
M  V30 COUNTS 12 11 0 0 0
M  V30 BEGIN ATOM
M  V30 1 C -1.7578 -0.7812 0.0000 0
M  V30 2 C -0.5859 0.1953 0.0000 0
M  V30 3 C 1.7578 0.1953 0.0000 0
M  V30 4 N -0.7812 1.3672 0.0000 0
M  V30 5 N 0.3906 -0.5859 0.0000 0
M  V30 6 N 2.7344 -0.5859 0.0000 0
M  V30 7 O -3.1250 -0.3906 0.0000 0
M  V30 8 H -1.5625 -1.9531 0.0000 0
M  V30 9 H -1.5625 1.7578 0.0000 0
M  V30 10 H 0.5859 -1.7578 0.0000 0
M  V30 11 H 1.7578 1.1719 0.0000 0
M  V30 12 H 3.5156 0.1953 0.0000 0
M  V30 END ATOM
M  V30 BEGIN BOND
M  V30 1 1 1 2
M  V30 2 1 1 7
M  V30 3 1 1 8
M  V30 4 2 2 4
M  V30 5 2 2 5
M  V30 6 1 3 5
M  V30 7 3 3 6
M  V30 8 1 3 11
M  V30 9 1 4 9
M  V30 10 1 5 10
M  V30 11 1 6 12
M  V30 END BOND
M  V30 END CTAB
M  END
>  <ID>
175
$$$$
Structure_176
Score 	 6.0, smilesprid 	smiles	 smilestrue 	smiles	 similartanimoto 	0	 similardice 	0

   12   11  0  0  0  0            999 V3000
M  V30 BEGIN CTAB
M  V30 COUNTS 12 11 0 0 0
M  V30 BEGIN ATOM
M  V30 1 C -1.7578 -0.7812 0.0000 0
M  V30 2 C -0.5859 0.1953 0.0000 0
M  V30 3 C 1.7578 0.1953 0.0000 0
M  V30 4 N -0.7812 1.3672 0.0000 0
M  V30 5 N 0.3906 -0.5859 0.0000 0
M  V30 6 N 2.7344 -0.5859 0.0000 0
M  V30 7 O -3.1250 -0.3906 0.0000 0
M  V30 8 H -1.5625 -1.9531 0.0000 0
M  V30 9 H -1.5625 1.7578 0.0000 0
M  V30 10 H 0.5859 -1.7578 0.0000 0
M  V30 11 H 1.7578 1.1719 0.0000 0
M  V30 12 H 3.5156 0.1953 0.0000 0
M  V30 END ATOM
M  V30 BEGIN BOND
M  V30 1 2 1 2
M  V30 2 1 1 7
M  V30 3 1 1 8
M  V30 4 2 2 4
M  V30 5 2 2 5
M  V30 6 1 3 5
M  V30 7 3 3 6
M  V30 8 1 3 11
M  V30 9 1 4 9
M  V30 10 1 5 10
M  V30 11 1 6 12
M  V30 END BOND
M  V30 END CTAB
M  END
>  <ID>
176
$$$$
Structure_177
Score 	 8.0, smilesprid 	smiles	 smilestrue 	smiles	 similartanimoto 	0	 similardice 	0

   12   11  0  0  0  0            999 V3000
M  V30 BEGIN CTAB
M  V30 COUNTS 12 11 0 0 0
M  V30 BEGIN ATOM
M  V30 1 C -1.7578 -0.7812 0.0000 0
M  V30 2 C -0.5859 0.1953 0.0000 0
M  V30 3 C 1.7578 0.1953 0.0000 0
M  V30 4 N -0.7812 1.3672 0.0000 0
M  V30 5 N 0.3906 -0.5859 0.0000 0
M  V30 6 N 2.7344 -0.5859 0.0000 0
M  V30 7 O -3.1250 -0.3906 0.0000 0
M  V30 8 H -1.5625 -1.9531 0.0000 0
M  V30 9 H -1.5625 1.7578 0.0000 0
M  V30 10 H 0.5859 -1.7578 0.0000 0
M  V30 11 H 1.7578 1.1719 0.0000 0
M  V30 12 H 3.5156 0.1953 0.0000 0
M  V30 END ATOM
M  V30 BEGIN BOND
M  V30 1 3 1 2
M  V30 2 1 1 7
M  V30 3 1 1 8
M  V30 4 2 2 4
M  V30 5 2 2 5
M  V30 6 1 3 5
M  V30 7 3 3 6
M  V30 8 1 3 11
M  V30 9 1 4 9
M  V30 10 1 5 10
M  V30 11 1 6 12
M  V30 END BOND
M  V30 END CTAB
M  END
>  <ID>
177
$$$$
Structure_178
Score 	 8.0, smilesprid 	smiles	 smilestrue 	smiles	 similartanimoto 	0	 similardice 	0

   12   11  0  0  0  0            999 V3000
M  V30 BEGIN CTAB
M  V30 COUNTS 12 11 0 0 0
M  V30 BEGIN ATOM
M  V30 1 C -1.7578 -0.7812 0.0000 0
M  V30 2 C -0.5859 0.1953 0.0000 0
M  V30 3 C 1.7578 0.1953 0.0000 0
M  V30 4 N -0.7812 1.3672 0.0000 0
M  V30 5 N 0.3906 -0.5859 0.0000 0
M  V30 6 N 2.7344 -0.5859 0.0000 0
M  V30 7 O -3.1250 -0.3906 0.0000 0
M  V30 8 H -1.5625 -1.9531 0.0000 0
M  V30 9 H -1.5625 1.7578 0.0000 0
M  V30 10 H 0.5859 -1.7578 0.0000 0
M  V30 11 H 1.7578 1.1719 0.0000 0
M  V30 12 H 3.5156 0.1953 0.0000 0
M  V30 END ATOM
M  V30 BEGIN BOND
M  V30 1 1 1 2
M  V30 2 1 1 7
M  V30 3 1 1 8
M  V30 4 3 2 4
M  V30 5 2 2 5
M  V30 6 1 3 5
M  V30 7 3 3 6
M  V30 8 1 3 11
M  V30 9 1 4 9
M  V30 10 1 5 10
M  V30 11 1 6 12
M  V30 END BOND
M  V30 END CTAB
M  END
>  <ID>
178
$$$$
Structure_179
Score 	 8.0, smilesprid 	smiles	 smilestrue 	smiles	 similartanimoto 	0	 similardice 	0

   12   11  0  0  0  0            999 V3000
M  V30 BEGIN CTAB
M  V30 COUNTS 12 11 0 0 0
M  V30 BEGIN ATOM
M  V30 1 C -1.7578 -0.7812 0.0000 0
M  V30 2 C -0.5859 0.1953 0.0000 0
M  V30 3 C 1.7578 0.1953 0.0000 0
M  V30 4 N -0.7812 1.3672 0.0000 0
M  V30 5 N 0.3906 -0.5859 0.0000 0
M  V30 6 N 2.7344 -0.5859 0.0000 0
M  V30 7 O -3.1250 -0.3906 0.0000 0
M  V30 8 H -1.5625 -1.9531 0.0000 0
M  V30 9 H -1.5625 1.7578 0.0000 0
M  V30 10 H 0.5859 -1.7578 0.0000 0
M  V30 11 H 1.7578 1.1719 0.0000 0
M  V30 12 H 3.5156 0.1953 0.0000 0
M  V30 END ATOM
M  V30 BEGIN BOND
M  V30 1 2 1 2
M  V30 2 1 1 7
M  V30 3 1 1 8
M  V30 4 3 2 4
M  V30 5 2 2 5
M  V30 6 1 3 5
M  V30 7 3 3 6
M  V30 8 1 3 11
M  V30 9 1 4 9
M  V30 10 1 5 10
M  V30 11 1 6 12
M  V30 END BOND
M  V30 END CTAB
M  END
>  <ID>
179
$$$$
Structure_180
Score 	 10.0, smilesprid 	smiles	 smilestrue 	smiles	 similartanimoto 	0	 similardice 	0

   12   11  0  0  0  0            999 V3000
M  V30 BEGIN CTAB
M  V30 COUNTS 12 11 0 0 0
M  V30 BEGIN ATOM
M  V30 1 C -1.7578 -0.7812 0.0000 0
M  V30 2 C -0.5859 0.1953 0.0000 0
M  V30 3 C 1.7578 0.1953 0.0000 0
M  V30 4 N -0.7812 1.3672 0.0000 0
M  V30 5 N 0.3906 -0.5859 0.0000 0
M  V30 6 N 2.7344 -0.5859 0.0000 0
M  V30 7 O -3.1250 -0.3906 0.0000 0
M  V30 8 H -1.5625 -1.9531 0.0000 0
M  V30 9 H -1.5625 1.7578 0.0000 0
M  V30 10 H 0.5859 -1.7578 0.0000 0
M  V30 11 H 1.7578 1.1719 0.0000 0
M  V30 12 H 3.5156 0.1953 0.0000 0
M  V30 END ATOM
M  V30 BEGIN BOND
M  V30 1 3 1 2
M  V30 2 1 1 7
M  V30 3 1 1 8
M  V30 4 3 2 4
M  V30 5 2 2 5
M  V30 6 1 3 5
M  V30 7 3 3 6
M  V30 8 1 3 11
M  V30 9 1 4 9
M  V30 10 1 5 10
M  V30 11 1 6 12
M  V30 END BOND
M  V30 END CTAB
M  END
>  <ID>
180
$$$$
Structure_181
Score 	 8.0, smilesprid 	smiles	 smilestrue 	smiles	 similartanimoto 	0	 similardice 	0

   12   11  0  0  0  0            999 V3000
M  V30 BEGIN CTAB
M  V30 COUNTS 12 11 0 0 0
M  V30 BEGIN ATOM
M  V30 1 C -1.7578 -0.7812 0.0000 0
M  V30 2 C -0.5859 0.1953 0.0000 0
M  V30 3 C 1.7578 0.1953 0.0000 0
M  V30 4 N -0.7812 1.3672 0.0000 0
M  V30 5 N 0.3906 -0.5859 0.0000 0
M  V30 6 N 2.7344 -0.5859 0.0000 0
M  V30 7 O -3.1250 -0.3906 0.0000 0
M  V30 8 H -1.5625 -1.9531 0.0000 0
M  V30 9 H -1.5625 1.7578 0.0000 0
M  V30 10 H 0.5859 -1.7578 0.0000 0
M  V30 11 H 1.7578 1.1719 0.0000 0
M  V30 12 H 3.5156 0.1953 0.0000 0
M  V30 END ATOM
M  V30 BEGIN BOND
M  V30 1 1 1 2
M  V30 2 1 1 7
M  V30 3 1 1 8
M  V30 4 1 2 4
M  V30 5 3 2 5
M  V30 6 1 3 5
M  V30 7 3 3 6
M  V30 8 1 3 11
M  V30 9 1 4 9
M  V30 10 1 5 10
M  V30 11 1 6 12
M  V30 END BOND
M  V30 END CTAB
M  END
>  <ID>
181
$$$$
Structure_182
Score 	 8.0, smilesprid 	smiles	 smilestrue 	smiles	 similartanimoto 	0	 similardice 	0

   12   11  0  0  0  0            999 V3000
M  V30 BEGIN CTAB
M  V30 COUNTS 12 11 0 0 0
M  V30 BEGIN ATOM
M  V30 1 C -1.7578 -0.7812 0.0000 0
M  V30 2 C -0.5859 0.1953 0.0000 0
M  V30 3 C 1.7578 0.1953 0.0000 0
M  V30 4 N -0.7812 1.3672 0.0000 0
M  V30 5 N 0.3906 -0.5859 0.0000 0
M  V30 6 N 2.7344 -0.5859 0.0000 0
M  V30 7 O -3.1250 -0.3906 0.0000 0
M  V30 8 H -1.5625 -1.9531 0.0000 0
M  V30 9 H -1.5625 1.7578 0.0000 0
M  V30 10 H 0.5859 -1.7578 0.0000 0
M  V30 11 H 1.7578 1.1719 0.0000 0
M  V30 12 H 3.5156 0.1953 0.0000 0
M  V30 END ATOM
M  V30 BEGIN BOND
M  V30 1 2 1 2
M  V30 2 1 1 7
M  V30 3 1 1 8
M  V30 4 1 2 4
M  V30 5 3 2 5
M  V30 6 1 3 5
M  V30 7 3 3 6
M  V30 8 1 3 11
M  V30 9 1 4 9
M  V30 10 1 5 10
M  V30 11 1 6 12
M  V30 END BOND
M  V30 END CTAB
M  END
>  <ID>
182
$$$$
Structure_183
Score 	 10.0, smilesprid 	smiles	 smilestrue 	smiles	 similartanimoto 	0	 similardice 	0

   12   11  0  0  0  0            999 V3000
M  V30 BEGIN CTAB
M  V30 COUNTS 12 11 0 0 0
M  V30 BEGIN ATOM
M  V30 1 C -1.7578 -0.7812 0.0000 0
M  V30 2 C -0.5859 0.1953 0.0000 0
M  V30 3 C 1.7578 0.1953 0.0000 0
M  V30 4 N -0.7812 1.3672 0.0000 0
M  V30 5 N 0.3906 -0.5859 0.0000 0
M  V30 6 N 2.7344 -0.5859 0.0000 0
M  V30 7 O -3.1250 -0.3906 0.0000 0
M  V30 8 H -1.5625 -1.9531 0.0000 0
M  V30 9 H -1.5625 1.7578 0.0000 0
M  V30 10 H 0.5859 -1.7578 0.0000 0
M  V30 11 H 1.7578 1.1719 0.0000 0
M  V30 12 H 3.5156 0.1953 0.0000 0
M  V30 END ATOM
M  V30 BEGIN BOND
M  V30 1 3 1 2
M  V30 2 1 1 7
M  V30 3 1 1 8
M  V30 4 1 2 4
M  V30 5 3 2 5
M  V30 6 1 3 5
M  V30 7 3 3 6
M  V30 8 1 3 11
M  V30 9 1 4 9
M  V30 10 1 5 10
M  V30 11 1 6 12
M  V30 END BOND
M  V30 END CTAB
M  END
>  <ID>
183
$$$$
Structure_184
Score 	 8.0, smilesprid 	smiles	 smilestrue 	smiles	 similartanimoto 	0	 similardice 	0

   12   11  0  0  0  0            999 V3000
M  V30 BEGIN CTAB
M  V30 COUNTS 12 11 0 0 0
M  V30 BEGIN ATOM
M  V30 1 C -1.7578 -0.7812 0.0000 0
M  V30 2 C -0.5859 0.1953 0.0000 0
M  V30 3 C 1.7578 0.1953 0.0000 0
M  V30 4 N -0.7812 1.3672 0.0000 0
M  V30 5 N 0.3906 -0.5859 0.0000 0
M  V30 6 N 2.7344 -0.5859 0.0000 0
M  V30 7 O -3.1250 -0.3906 0.0000 0
M  V30 8 H -1.5625 -1.9531 0.0000 0
M  V30 9 H -1.5625 1.7578 0.0000 0
M  V30 10 H 0.5859 -1.7578 0.0000 0
M  V30 11 H 1.7578 1.1719 0.0000 0
M  V30 12 H 3.5156 0.1953 0.0000 0
M  V30 END ATOM
M  V30 BEGIN BOND
M  V30 1 1 1 2
M  V30 2 1 1 7
M  V30 3 1 1 8
M  V30 4 2 2 4
M  V30 5 3 2 5
M  V30 6 1 3 5
M  V30 7 3 3 6
M  V30 8 1 3 11
M  V30 9 1 4 9
M  V30 10 1 5 10
M  V30 11 1 6 12
M  V30 END BOND
M  V30 END CTAB
M  END
>  <ID>
184
$$$$
Structure_185
Score 	 8.0, smilesprid 	smiles	 smilestrue 	smiles	 similartanimoto 	0	 similardice 	0

   12   11  0  0  0  0            999 V3000
M  V30 BEGIN CTAB
M  V30 COUNTS 12 11 0 0 0
M  V30 BEGIN ATOM
M  V30 1 C -1.7578 -0.7812 0.0000 0
M  V30 2 C -0.5859 0.1953 0.0000 0
M  V30 3 C 1.7578 0.1953 0.0000 0
M  V30 4 N -0.7812 1.3672 0.0000 0
M  V30 5 N 0.3906 -0.5859 0.0000 0
M  V30 6 N 2.7344 -0.5859 0.0000 0
M  V30 7 O -3.1250 -0.3906 0.0000 0
M  V30 8 H -1.5625 -1.9531 0.0000 0
M  V30 9 H -1.5625 1.7578 0.0000 0
M  V30 10 H 0.5859 -1.7578 0.0000 0
M  V30 11 H 1.7578 1.1719 0.0000 0
M  V30 12 H 3.5156 0.1953 0.0000 0
M  V30 END ATOM
M  V30 BEGIN BOND
M  V30 1 2 1 2
M  V30 2 1 1 7
M  V30 3 1 1 8
M  V30 4 2 2 4
M  V30 5 3 2 5
M  V30 6 1 3 5
M  V30 7 3 3 6
M  V30 8 1 3 11
M  V30 9 1 4 9
M  V30 10 1 5 10
M  V30 11 1 6 12
M  V30 END BOND
M  V30 END CTAB
M  END
>  <ID>
185
$$$$
Structure_186
Score 	 10.0, smilesprid 	smiles	 smilestrue 	smiles	 similartanimoto 	0	 similardice 	0

   12   11  0  0  0  0            999 V3000
M  V30 BEGIN CTAB
M  V30 COUNTS 12 11 0 0 0
M  V30 BEGIN ATOM
M  V30 1 C -1.7578 -0.7812 0.0000 0
M  V30 2 C -0.5859 0.1953 0.0000 0
M  V30 3 C 1.7578 0.1953 0.0000 0
M  V30 4 N -0.7812 1.3672 0.0000 0
M  V30 5 N 0.3906 -0.5859 0.0000 0
M  V30 6 N 2.7344 -0.5859 0.0000 0
M  V30 7 O -3.1250 -0.3906 0.0000 0
M  V30 8 H -1.5625 -1.9531 0.0000 0
M  V30 9 H -1.5625 1.7578 0.0000 0
M  V30 10 H 0.5859 -1.7578 0.0000 0
M  V30 11 H 1.7578 1.1719 0.0000 0
M  V30 12 H 3.5156 0.1953 0.0000 0
M  V30 END ATOM
M  V30 BEGIN BOND
M  V30 1 3 1 2
M  V30 2 1 1 7
M  V30 3 1 1 8
M  V30 4 2 2 4
M  V30 5 3 2 5
M  V30 6 1 3 5
M  V30 7 3 3 6
M  V30 8 1 3 11
M  V30 9 1 4 9
M  V30 10 1 5 10
M  V30 11 1 6 12
M  V30 END BOND
M  V30 END CTAB
M  END
>  <ID>
186
$$$$
Structure_187
Score 	 10.0, smilesprid 	smiles	 smilestrue 	smiles	 similartanimoto 	0	 similardice 	0

   12   11  0  0  0  0            999 V3000
M  V30 BEGIN CTAB
M  V30 COUNTS 12 11 0 0 0
M  V30 BEGIN ATOM
M  V30 1 C -1.7578 -0.7812 0.0000 0
M  V30 2 C -0.5859 0.1953 0.0000 0
M  V30 3 C 1.7578 0.1953 0.0000 0
M  V30 4 N -0.7812 1.3672 0.0000 0
M  V30 5 N 0.3906 -0.5859 0.0000 0
M  V30 6 N 2.7344 -0.5859 0.0000 0
M  V30 7 O -3.1250 -0.3906 0.0000 0
M  V30 8 H -1.5625 -1.9531 0.0000 0
M  V30 9 H -1.5625 1.7578 0.0000 0
M  V30 10 H 0.5859 -1.7578 0.0000 0
M  V30 11 H 1.7578 1.1719 0.0000 0
M  V30 12 H 3.5156 0.1953 0.0000 0
M  V30 END ATOM
M  V30 BEGIN BOND
M  V30 1 1 1 2
M  V30 2 1 1 7
M  V30 3 1 1 8
M  V30 4 3 2 4
M  V30 5 3 2 5
M  V30 6 1 3 5
M  V30 7 3 3 6
M  V30 8 1 3 11
M  V30 9 1 4 9
M  V30 10 1 5 10
M  V30 11 1 6 12
M  V30 END BOND
M  V30 END CTAB
M  END
>  <ID>
187
$$$$
Structure_188
Score 	 10.0, smilesprid 	smiles	 smilestrue 	smiles	 similartanimoto 	0	 similardice 	0

   12   11  0  0  0  0            999 V3000
M  V30 BEGIN CTAB
M  V30 COUNTS 12 11 0 0 0
M  V30 BEGIN ATOM
M  V30 1 C -1.7578 -0.7812 0.0000 0
M  V30 2 C -0.5859 0.1953 0.0000 0
M  V30 3 C 1.7578 0.1953 0.0000 0
M  V30 4 N -0.7812 1.3672 0.0000 0
M  V30 5 N 0.3906 -0.5859 0.0000 0
M  V30 6 N 2.7344 -0.5859 0.0000 0
M  V30 7 O -3.1250 -0.3906 0.0000 0
M  V30 8 H -1.5625 -1.9531 0.0000 0
M  V30 9 H -1.5625 1.7578 0.0000 0
M  V30 10 H 0.5859 -1.7578 0.0000 0
M  V30 11 H 1.7578 1.1719 0.0000 0
M  V30 12 H 3.5156 0.1953 0.0000 0
M  V30 END ATOM
M  V30 BEGIN BOND
M  V30 1 2 1 2
M  V30 2 1 1 7
M  V30 3 1 1 8
M  V30 4 3 2 4
M  V30 5 3 2 5
M  V30 6 1 3 5
M  V30 7 3 3 6
M  V30 8 1 3 11
M  V30 9 1 4 9
M  V30 10 1 5 10
M  V30 11 1 6 12
M  V30 END BOND
M  V30 END CTAB
M  END
>  <ID>
188
$$$$
Structure_189
Score 	 12.0, smilesprid 	smiles	 smilestrue 	smiles	 similartanimoto 	0	 similardice 	0

   12   11  0  0  0  0            999 V3000
M  V30 BEGIN CTAB
M  V30 COUNTS 12 11 0 0 0
M  V30 BEGIN ATOM
M  V30 1 C -1.7578 -0.7812 0.0000 0
M  V30 2 C -0.5859 0.1953 0.0000 0
M  V30 3 C 1.7578 0.1953 0.0000 0
M  V30 4 N -0.7812 1.3672 0.0000 0
M  V30 5 N 0.3906 -0.5859 0.0000 0
M  V30 6 N 2.7344 -0.5859 0.0000 0
M  V30 7 O -3.1250 -0.3906 0.0000 0
M  V30 8 H -1.5625 -1.9531 0.0000 0
M  V30 9 H -1.5625 1.7578 0.0000 0
M  V30 10 H 0.5859 -1.7578 0.0000 0
M  V30 11 H 1.7578 1.1719 0.0000 0
M  V30 12 H 3.5156 0.1953 0.0000 0
M  V30 END ATOM
M  V30 BEGIN BOND
M  V30 1 3 1 2
M  V30 2 1 1 7
M  V30 3 1 1 8
M  V30 4 3 2 4
M  V30 5 3 2 5
M  V30 6 1 3 5
M  V30 7 3 3 6
M  V30 8 1 3 11
M  V30 9 1 4 9
M  V30 10 1 5 10
M  V30 11 1 6 12
M  V30 END BOND
M  V30 END CTAB
M  END
>  <ID>
189
$$$$
Structure_190
Score 	 8.0, smilesprid 	smiles	 smilestrue 	smiles	 similartanimoto 	0	 similardice 	0

   12   11  0  0  0  0            999 V3000
M  V30 BEGIN CTAB
M  V30 COUNTS 12 11 0 0 0
M  V30 BEGIN ATOM
M  V30 1 C -1.7578 -0.7812 0.0000 0
M  V30 2 C -0.5859 0.1953 0.0000 0
M  V30 3 C 1.7578 0.1953 0.0000 0
M  V30 4 N -0.7812 1.3672 0.0000 0
M  V30 5 N 0.3906 -0.5859 0.0000 0
M  V30 6 N 2.7344 -0.5859 0.0000 0
M  V30 7 O -3.1250 -0.3906 0.0000 0
M  V30 8 H -1.5625 -1.9531 0.0000 0
M  V30 9 H -1.5625 1.7578 0.0000 0
M  V30 10 H 0.5859 -1.7578 0.0000 0
M  V30 11 H 1.7578 1.1719 0.0000 0
M  V30 12 H 3.5156 0.1953 0.0000 0
M  V30 END ATOM
M  V30 BEGIN BOND
M  V30 1 1 1 2
M  V30 2 1 1 7
M  V30 3 1 1 8
M  V30 4 1 2 4
M  V30 5 1 2 5
M  V30 6 2 3 5
M  V30 7 3 3 6
M  V30 8 1 3 11
M  V30 9 1 4 9
M  V30 10 1 5 10
M  V30 11 1 6 12
M  V30 END BOND
M  V30 END CTAB
M  END
>  <ID>
190
$$$$
Structure_191
Score 	 6.0, smilesprid 	smiles	 smilestrue 	smiles	 similartanimoto 	0	 similardice 	0

   12   11  0  0  0  0            999 V3000
M  V30 BEGIN CTAB
M  V30 COUNTS 12 11 0 0 0
M  V30 BEGIN ATOM
M  V30 1 C -1.7578 -0.7812 0.0000 0
M  V30 2 C -0.5859 0.1953 0.0000 0
M  V30 3 C 1.7578 0.1953 0.0000 0
M  V30 4 N -0.7812 1.3672 0.0000 0
M  V30 5 N 0.3906 -0.5859 0.0000 0
M  V30 6 N 2.7344 -0.5859 0.0000 0
M  V30 7 O -3.1250 -0.3906 0.0000 0
M  V30 8 H -1.5625 -1.9531 0.0000 0
M  V30 9 H -1.5625 1.7578 0.0000 0
M  V30 10 H 0.5859 -1.7578 0.0000 0
M  V30 11 H 1.7578 1.1719 0.0000 0
M  V30 12 H 3.5156 0.1953 0.0000 0
M  V30 END ATOM
M  V30 BEGIN BOND
M  V30 1 2 1 2
M  V30 2 1 1 7
M  V30 3 1 1 8
M  V30 4 1 2 4
M  V30 5 1 2 5
M  V30 6 2 3 5
M  V30 7 3 3 6
M  V30 8 1 3 11
M  V30 9 1 4 9
M  V30 10 1 5 10
M  V30 11 1 6 12
M  V30 END BOND
M  V30 END CTAB
M  END
>  <ID>
191
$$$$
Structure_192
Score 	 8.0, smilesprid 	smiles	 smilestrue 	smiles	 similartanimoto 	0	 similardice 	0

   12   11  0  0  0  0            999 V3000
M  V30 BEGIN CTAB
M  V30 COUNTS 12 11 0 0 0
M  V30 BEGIN ATOM
M  V30 1 C -1.7578 -0.7812 0.0000 0
M  V30 2 C -0.5859 0.1953 0.0000 0
M  V30 3 C 1.7578 0.1953 0.0000 0
M  V30 4 N -0.7812 1.3672 0.0000 0
M  V30 5 N 0.3906 -0.5859 0.0000 0
M  V30 6 N 2.7344 -0.5859 0.0000 0
M  V30 7 O -3.1250 -0.3906 0.0000 0
M  V30 8 H -1.5625 -1.9531 0.0000 0
M  V30 9 H -1.5625 1.7578 0.0000 0
M  V30 10 H 0.5859 -1.7578 0.0000 0
M  V30 11 H 1.7578 1.1719 0.0000 0
M  V30 12 H 3.5156 0.1953 0.0000 0
M  V30 END ATOM
M  V30 BEGIN BOND
M  V30 1 3 1 2
M  V30 2 1 1 7
M  V30 3 1 1 8
M  V30 4 1 2 4
M  V30 5 1 2 5
M  V30 6 2 3 5
M  V30 7 3 3 6
M  V30 8 1 3 11
M  V30 9 1 4 9
M  V30 10 1 5 10
M  V30 11 1 6 12
M  V30 END BOND
M  V30 END CTAB
M  END
>  <ID>
192
$$$$
Structure_193
Score 	 6.0, smilesprid 	smiles	 smilestrue 	smiles	 similartanimoto 	0	 similardice 	0

   12   11  0  0  0  0            999 V3000
M  V30 BEGIN CTAB
M  V30 COUNTS 12 11 0 0 0
M  V30 BEGIN ATOM
M  V30 1 C -1.7578 -0.7812 0.0000 0
M  V30 2 C -0.5859 0.1953 0.0000 0
M  V30 3 C 1.7578 0.1953 0.0000 0
M  V30 4 N -0.7812 1.3672 0.0000 0
M  V30 5 N 0.3906 -0.5859 0.0000 0
M  V30 6 N 2.7344 -0.5859 0.0000 0
M  V30 7 O -3.1250 -0.3906 0.0000 0
M  V30 8 H -1.5625 -1.9531 0.0000 0
M  V30 9 H -1.5625 1.7578 0.0000 0
M  V30 10 H 0.5859 -1.7578 0.0000 0
M  V30 11 H 1.7578 1.1719 0.0000 0
M  V30 12 H 3.5156 0.1953 0.0000 0
M  V30 END ATOM
M  V30 BEGIN BOND
M  V30 1 1 1 2
M  V30 2 1 1 7
M  V30 3 1 1 8
M  V30 4 2 2 4
M  V30 5 1 2 5
M  V30 6 2 3 5
M  V30 7 3 3 6
M  V30 8 1 3 11
M  V30 9 1 4 9
M  V30 10 1 5 10
M  V30 11 1 6 12
M  V30 END BOND
M  V30 END CTAB
M  END
>  <ID>
193
$$$$
Structure_194
Score 	 6.0, smilesprid 	smiles	 smilestrue 	smiles	 similartanimoto 	0	 similardice 	0

   12   11  0  0  0  0            999 V3000
M  V30 BEGIN CTAB
M  V30 COUNTS 12 11 0 0 0
M  V30 BEGIN ATOM
M  V30 1 C -1.7578 -0.7812 0.0000 0
M  V30 2 C -0.5859 0.1953 0.0000 0
M  V30 3 C 1.7578 0.1953 0.0000 0
M  V30 4 N -0.7812 1.3672 0.0000 0
M  V30 5 N 0.3906 -0.5859 0.0000 0
M  V30 6 N 2.7344 -0.5859 0.0000 0
M  V30 7 O -3.1250 -0.3906 0.0000 0
M  V30 8 H -1.5625 -1.9531 0.0000 0
M  V30 9 H -1.5625 1.7578 0.0000 0
M  V30 10 H 0.5859 -1.7578 0.0000 0
M  V30 11 H 1.7578 1.1719 0.0000 0
M  V30 12 H 3.5156 0.1953 0.0000 0
M  V30 END ATOM
M  V30 BEGIN BOND
M  V30 1 2 1 2
M  V30 2 1 1 7
M  V30 3 1 1 8
M  V30 4 2 2 4
M  V30 5 1 2 5
M  V30 6 2 3 5
M  V30 7 3 3 6
M  V30 8 1 3 11
M  V30 9 1 4 9
M  V30 10 1 5 10
M  V30 11 1 6 12
M  V30 END BOND
M  V30 END CTAB
M  END
>  <ID>
194
$$$$
Structure_195
Score 	 8.0, smilesprid 	smiles	 smilestrue 	smiles	 similartanimoto 	0	 similardice 	0

   12   11  0  0  0  0            999 V3000
M  V30 BEGIN CTAB
M  V30 COUNTS 12 11 0 0 0
M  V30 BEGIN ATOM
M  V30 1 C -1.7578 -0.7812 0.0000 0
M  V30 2 C -0.5859 0.1953 0.0000 0
M  V30 3 C 1.7578 0.1953 0.0000 0
M  V30 4 N -0.7812 1.3672 0.0000 0
M  V30 5 N 0.3906 -0.5859 0.0000 0
M  V30 6 N 2.7344 -0.5859 0.0000 0
M  V30 7 O -3.1250 -0.3906 0.0000 0
M  V30 8 H -1.5625 -1.9531 0.0000 0
M  V30 9 H -1.5625 1.7578 0.0000 0
M  V30 10 H 0.5859 -1.7578 0.0000 0
M  V30 11 H 1.7578 1.1719 0.0000 0
M  V30 12 H 3.5156 0.1953 0.0000 0
M  V30 END ATOM
M  V30 BEGIN BOND
M  V30 1 3 1 2
M  V30 2 1 1 7
M  V30 3 1 1 8
M  V30 4 2 2 4
M  V30 5 1 2 5
M  V30 6 2 3 5
M  V30 7 3 3 6
M  V30 8 1 3 11
M  V30 9 1 4 9
M  V30 10 1 5 10
M  V30 11 1 6 12
M  V30 END BOND
M  V30 END CTAB
M  END
>  <ID>
195
$$$$
Structure_196
Score 	 8.0, smilesprid 	smiles	 smilestrue 	smiles	 similartanimoto 	0	 similardice 	0

   12   11  0  0  0  0            999 V3000
M  V30 BEGIN CTAB
M  V30 COUNTS 12 11 0 0 0
M  V30 BEGIN ATOM
M  V30 1 C -1.7578 -0.7812 0.0000 0
M  V30 2 C -0.5859 0.1953 0.0000 0
M  V30 3 C 1.7578 0.1953 0.0000 0
M  V30 4 N -0.7812 1.3672 0.0000 0
M  V30 5 N 0.3906 -0.5859 0.0000 0
M  V30 6 N 2.7344 -0.5859 0.0000 0
M  V30 7 O -3.1250 -0.3906 0.0000 0
M  V30 8 H -1.5625 -1.9531 0.0000 0
M  V30 9 H -1.5625 1.7578 0.0000 0
M  V30 10 H 0.5859 -1.7578 0.0000 0
M  V30 11 H 1.7578 1.1719 0.0000 0
M  V30 12 H 3.5156 0.1953 0.0000 0
M  V30 END ATOM
M  V30 BEGIN BOND
M  V30 1 1 1 2
M  V30 2 1 1 7
M  V30 3 1 1 8
M  V30 4 3 2 4
M  V30 5 1 2 5
M  V30 6 2 3 5
M  V30 7 3 3 6
M  V30 8 1 3 11
M  V30 9 1 4 9
M  V30 10 1 5 10
M  V30 11 1 6 12
M  V30 END BOND
M  V30 END CTAB
M  END
>  <ID>
196
$$$$
Structure_197
Score 	 8.0, smilesprid 	smiles	 smilestrue 	smiles	 similartanimoto 	0	 similardice 	0

   12   11  0  0  0  0            999 V3000
M  V30 BEGIN CTAB
M  V30 COUNTS 12 11 0 0 0
M  V30 BEGIN ATOM
M  V30 1 C -1.7578 -0.7812 0.0000 0
M  V30 2 C -0.5859 0.1953 0.0000 0
M  V30 3 C 1.7578 0.1953 0.0000 0
M  V30 4 N -0.7812 1.3672 0.0000 0
M  V30 5 N 0.3906 -0.5859 0.0000 0
M  V30 6 N 2.7344 -0.5859 0.0000 0
M  V30 7 O -3.1250 -0.3906 0.0000 0
M  V30 8 H -1.5625 -1.9531 0.0000 0
M  V30 9 H -1.5625 1.7578 0.0000 0
M  V30 10 H 0.5859 -1.7578 0.0000 0
M  V30 11 H 1.7578 1.1719 0.0000 0
M  V30 12 H 3.5156 0.1953 0.0000 0
M  V30 END ATOM
M  V30 BEGIN BOND
M  V30 1 2 1 2
M  V30 2 1 1 7
M  V30 3 1 1 8
M  V30 4 3 2 4
M  V30 5 1 2 5
M  V30 6 2 3 5
M  V30 7 3 3 6
M  V30 8 1 3 11
M  V30 9 1 4 9
M  V30 10 1 5 10
M  V30 11 1 6 12
M  V30 END BOND
M  V30 END CTAB
M  END
>  <ID>
197
$$$$
Structure_198
Score 	 10.0, smilesprid 	smiles	 smilestrue 	smiles	 similartanimoto 	0	 similardice 	0

   12   11  0  0  0  0            999 V3000
M  V30 BEGIN CTAB
M  V30 COUNTS 12 11 0 0 0
M  V30 BEGIN ATOM
M  V30 1 C -1.7578 -0.7812 0.0000 0
M  V30 2 C -0.5859 0.1953 0.0000 0
M  V30 3 C 1.7578 0.1953 0.0000 0
M  V30 4 N -0.7812 1.3672 0.0000 0
M  V30 5 N 0.3906 -0.5859 0.0000 0
M  V30 6 N 2.7344 -0.5859 0.0000 0
M  V30 7 O -3.1250 -0.3906 0.0000 0
M  V30 8 H -1.5625 -1.9531 0.0000 0
M  V30 9 H -1.5625 1.7578 0.0000 0
M  V30 10 H 0.5859 -1.7578 0.0000 0
M  V30 11 H 1.7578 1.1719 0.0000 0
M  V30 12 H 3.5156 0.1953 0.0000 0
M  V30 END ATOM
M  V30 BEGIN BOND
M  V30 1 3 1 2
M  V30 2 1 1 7
M  V30 3 1 1 8
M  V30 4 3 2 4
M  V30 5 1 2 5
M  V30 6 2 3 5
M  V30 7 3 3 6
M  V30 8 1 3 11
M  V30 9 1 4 9
M  V30 10 1 5 10
M  V30 11 1 6 12
M  V30 END BOND
M  V30 END CTAB
M  END
>  <ID>
198
$$$$
Structure_199
Score 	 8.0, smilesprid 	smiles	 smilestrue 	smiles	 similartanimoto 	0	 similardice 	0

   12   11  0  0  0  0            999 V3000
M  V30 BEGIN CTAB
M  V30 COUNTS 12 11 0 0 0
M  V30 BEGIN ATOM
M  V30 1 C -1.7578 -0.7812 0.0000 0
M  V30 2 C -0.5859 0.1953 0.0000 0
M  V30 3 C 1.7578 0.1953 0.0000 0
M  V30 4 N -0.7812 1.3672 0.0000 0
M  V30 5 N 0.3906 -0.5859 0.0000 0
M  V30 6 N 2.7344 -0.5859 0.0000 0
M  V30 7 O -3.1250 -0.3906 0.0000 0
M  V30 8 H -1.5625 -1.9531 0.0000 0
M  V30 9 H -1.5625 1.7578 0.0000 0
M  V30 10 H 0.5859 -1.7578 0.0000 0
M  V30 11 H 1.7578 1.1719 0.0000 0
M  V30 12 H 3.5156 0.1953 0.0000 0
M  V30 END ATOM
M  V30 BEGIN BOND
M  V30 1 1 1 2
M  V30 2 1 1 7
M  V30 3 1 1 8
M  V30 4 1 2 4
M  V30 5 2 2 5
M  V30 6 2 3 5
M  V30 7 3 3 6
M  V30 8 1 3 11
M  V30 9 1 4 9
M  V30 10 1 5 10
M  V30 11 1 6 12
M  V30 END BOND
M  V30 END CTAB
M  END
>  <ID>
199
$$$$
Structure_200
Score 	 8.0, smilesprid 	smiles	 smilestrue 	smiles	 similartanimoto 	0	 similardice 	0

   12   11  0  0  0  0            999 V3000
M  V30 BEGIN CTAB
M  V30 COUNTS 12 11 0 0 0
M  V30 BEGIN ATOM
M  V30 1 C -1.7578 -0.7812 0.0000 0
M  V30 2 C -0.5859 0.1953 0.0000 0
M  V30 3 C 1.7578 0.1953 0.0000 0
M  V30 4 N -0.7812 1.3672 0.0000 0
M  V30 5 N 0.3906 -0.5859 0.0000 0
M  V30 6 N 2.7344 -0.5859 0.0000 0
M  V30 7 O -3.1250 -0.3906 0.0000 0
M  V30 8 H -1.5625 -1.9531 0.0000 0
M  V30 9 H -1.5625 1.7578 0.0000 0
M  V30 10 H 0.5859 -1.7578 0.0000 0
M  V30 11 H 1.7578 1.1719 0.0000 0
M  V30 12 H 3.5156 0.1953 0.0000 0
M  V30 END ATOM
M  V30 BEGIN BOND
M  V30 1 2 1 2
M  V30 2 1 1 7
M  V30 3 1 1 8
M  V30 4 1 2 4
M  V30 5 2 2 5
M  V30 6 2 3 5
M  V30 7 3 3 6
M  V30 8 1 3 11
M  V30 9 1 4 9
M  V30 10 1 5 10
M  V30 11 1 6 12
M  V30 END BOND
M  V30 END CTAB
M  END
>  <ID>
200
$$$$
Structure_201
Score 	 10.0, smilesprid 	smiles	 smilestrue 	smiles	 similartanimoto 	0	 similardice 	0

   12   11  0  0  0  0            999 V3000
M  V30 BEGIN CTAB
M  V30 COUNTS 12 11 0 0 0
M  V30 BEGIN ATOM
M  V30 1 C -1.7578 -0.7812 0.0000 0
M  V30 2 C -0.5859 0.1953 0.0000 0
M  V30 3 C 1.7578 0.1953 0.0000 0
M  V30 4 N -0.7812 1.3672 0.0000 0
M  V30 5 N 0.3906 -0.5859 0.0000 0
M  V30 6 N 2.7344 -0.5859 0.0000 0
M  V30 7 O -3.1250 -0.3906 0.0000 0
M  V30 8 H -1.5625 -1.9531 0.0000 0
M  V30 9 H -1.5625 1.7578 0.0000 0
M  V30 10 H 0.5859 -1.7578 0.0000 0
M  V30 11 H 1.7578 1.1719 0.0000 0
M  V30 12 H 3.5156 0.1953 0.0000 0
M  V30 END ATOM
M  V30 BEGIN BOND
M  V30 1 3 1 2
M  V30 2 1 1 7
M  V30 3 1 1 8
M  V30 4 1 2 4
M  V30 5 2 2 5
M  V30 6 2 3 5
M  V30 7 3 3 6
M  V30 8 1 3 11
M  V30 9 1 4 9
M  V30 10 1 5 10
M  V30 11 1 6 12
M  V30 END BOND
M  V30 END CTAB
M  END
>  <ID>
201
$$$$
Structure_202
Score 	 8.0, smilesprid 	smiles	 smilestrue 	smiles	 similartanimoto 	0	 similardice 	0

   12   11  0  0  0  0            999 V3000
M  V30 BEGIN CTAB
M  V30 COUNTS 12 11 0 0 0
M  V30 BEGIN ATOM
M  V30 1 C -1.7578 -0.7812 0.0000 0
M  V30 2 C -0.5859 0.1953 0.0000 0
M  V30 3 C 1.7578 0.1953 0.0000 0
M  V30 4 N -0.7812 1.3672 0.0000 0
M  V30 5 N 0.3906 -0.5859 0.0000 0
M  V30 6 N 2.7344 -0.5859 0.0000 0
M  V30 7 O -3.1250 -0.3906 0.0000 0
M  V30 8 H -1.5625 -1.9531 0.0000 0
M  V30 9 H -1.5625 1.7578 0.0000 0
M  V30 10 H 0.5859 -1.7578 0.0000 0
M  V30 11 H 1.7578 1.1719 0.0000 0
M  V30 12 H 3.5156 0.1953 0.0000 0
M  V30 END ATOM
M  V30 BEGIN BOND
M  V30 1 1 1 2
M  V30 2 1 1 7
M  V30 3 1 1 8
M  V30 4 2 2 4
M  V30 5 2 2 5
M  V30 6 2 3 5
M  V30 7 3 3 6
M  V30 8 1 3 11
M  V30 9 1 4 9
M  V30 10 1 5 10
M  V30 11 1 6 12
M  V30 END BOND
M  V30 END CTAB
M  END
>  <ID>
202
$$$$
Structure_203
Score 	 8.0, smilesprid 	smiles	 smilestrue 	smiles	 similartanimoto 	0	 similardice 	0

   12   11  0  0  0  0            999 V3000
M  V30 BEGIN CTAB
M  V30 COUNTS 12 11 0 0 0
M  V30 BEGIN ATOM
M  V30 1 C -1.7578 -0.7812 0.0000 0
M  V30 2 C -0.5859 0.1953 0.0000 0
M  V30 3 C 1.7578 0.1953 0.0000 0
M  V30 4 N -0.7812 1.3672 0.0000 0
M  V30 5 N 0.3906 -0.5859 0.0000 0
M  V30 6 N 2.7344 -0.5859 0.0000 0
M  V30 7 O -3.1250 -0.3906 0.0000 0
M  V30 8 H -1.5625 -1.9531 0.0000 0
M  V30 9 H -1.5625 1.7578 0.0000 0
M  V30 10 H 0.5859 -1.7578 0.0000 0
M  V30 11 H 1.7578 1.1719 0.0000 0
M  V30 12 H 3.5156 0.1953 0.0000 0
M  V30 END ATOM
M  V30 BEGIN BOND
M  V30 1 2 1 2
M  V30 2 1 1 7
M  V30 3 1 1 8
M  V30 4 2 2 4
M  V30 5 2 2 5
M  V30 6 2 3 5
M  V30 7 3 3 6
M  V30 8 1 3 11
M  V30 9 1 4 9
M  V30 10 1 5 10
M  V30 11 1 6 12
M  V30 END BOND
M  V30 END CTAB
M  END
>  <ID>
203
$$$$
Structure_204
Score 	 10.0, smilesprid 	smiles	 smilestrue 	smiles	 similartanimoto 	0	 similardice 	0

   12   11  0  0  0  0            999 V3000
M  V30 BEGIN CTAB
M  V30 COUNTS 12 11 0 0 0
M  V30 BEGIN ATOM
M  V30 1 C -1.7578 -0.7812 0.0000 0
M  V30 2 C -0.5859 0.1953 0.0000 0
M  V30 3 C 1.7578 0.1953 0.0000 0
M  V30 4 N -0.7812 1.3672 0.0000 0
M  V30 5 N 0.3906 -0.5859 0.0000 0
M  V30 6 N 2.7344 -0.5859 0.0000 0
M  V30 7 O -3.1250 -0.3906 0.0000 0
M  V30 8 H -1.5625 -1.9531 0.0000 0
M  V30 9 H -1.5625 1.7578 0.0000 0
M  V30 10 H 0.5859 -1.7578 0.0000 0
M  V30 11 H 1.7578 1.1719 0.0000 0
M  V30 12 H 3.5156 0.1953 0.0000 0
M  V30 END ATOM
M  V30 BEGIN BOND
M  V30 1 3 1 2
M  V30 2 1 1 7
M  V30 3 1 1 8
M  V30 4 2 2 4
M  V30 5 2 2 5
M  V30 6 2 3 5
M  V30 7 3 3 6
M  V30 8 1 3 11
M  V30 9 1 4 9
M  V30 10 1 5 10
M  V30 11 1 6 12
M  V30 END BOND
M  V30 END CTAB
M  END
>  <ID>
204
$$$$
Structure_205
Score 	 10.0, smilesprid 	smiles	 smilestrue 	smiles	 similartanimoto 	0	 similardice 	0

   12   11  0  0  0  0            999 V3000
M  V30 BEGIN CTAB
M  V30 COUNTS 12 11 0 0 0
M  V30 BEGIN ATOM
M  V30 1 C -1.7578 -0.7812 0.0000 0
M  V30 2 C -0.5859 0.1953 0.0000 0
M  V30 3 C 1.7578 0.1953 0.0000 0
M  V30 4 N -0.7812 1.3672 0.0000 0
M  V30 5 N 0.3906 -0.5859 0.0000 0
M  V30 6 N 2.7344 -0.5859 0.0000 0
M  V30 7 O -3.1250 -0.3906 0.0000 0
M  V30 8 H -1.5625 -1.9531 0.0000 0
M  V30 9 H -1.5625 1.7578 0.0000 0
M  V30 10 H 0.5859 -1.7578 0.0000 0
M  V30 11 H 1.7578 1.1719 0.0000 0
M  V30 12 H 3.5156 0.1953 0.0000 0
M  V30 END ATOM
M  V30 BEGIN BOND
M  V30 1 1 1 2
M  V30 2 1 1 7
M  V30 3 1 1 8
M  V30 4 3 2 4
M  V30 5 2 2 5
M  V30 6 2 3 5
M  V30 7 3 3 6
M  V30 8 1 3 11
M  V30 9 1 4 9
M  V30 10 1 5 10
M  V30 11 1 6 12
M  V30 END BOND
M  V30 END CTAB
M  END
>  <ID>
205
$$$$
Structure_206
Score 	 10.0, smilesprid 	smiles	 smilestrue 	smiles	 similartanimoto 	0	 similardice 	0

   12   11  0  0  0  0            999 V3000
M  V30 BEGIN CTAB
M  V30 COUNTS 12 11 0 0 0
M  V30 BEGIN ATOM
M  V30 1 C -1.7578 -0.7812 0.0000 0
M  V30 2 C -0.5859 0.1953 0.0000 0
M  V30 3 C 1.7578 0.1953 0.0000 0
M  V30 4 N -0.7812 1.3672 0.0000 0
M  V30 5 N 0.3906 -0.5859 0.0000 0
M  V30 6 N 2.7344 -0.5859 0.0000 0
M  V30 7 O -3.1250 -0.3906 0.0000 0
M  V30 8 H -1.5625 -1.9531 0.0000 0
M  V30 9 H -1.5625 1.7578 0.0000 0
M  V30 10 H 0.5859 -1.7578 0.0000 0
M  V30 11 H 1.7578 1.1719 0.0000 0
M  V30 12 H 3.5156 0.1953 0.0000 0
M  V30 END ATOM
M  V30 BEGIN BOND
M  V30 1 2 1 2
M  V30 2 1 1 7
M  V30 3 1 1 8
M  V30 4 3 2 4
M  V30 5 2 2 5
M  V30 6 2 3 5
M  V30 7 3 3 6
M  V30 8 1 3 11
M  V30 9 1 4 9
M  V30 10 1 5 10
M  V30 11 1 6 12
M  V30 END BOND
M  V30 END CTAB
M  END
>  <ID>
206
$$$$
Structure_207
Score 	 12.0, smilesprid 	smiles	 smilestrue 	smiles	 similartanimoto 	0	 similardice 	0

   12   11  0  0  0  0            999 V3000
M  V30 BEGIN CTAB
M  V30 COUNTS 12 11 0 0 0
M  V30 BEGIN ATOM
M  V30 1 C -1.7578 -0.7812 0.0000 0
M  V30 2 C -0.5859 0.1953 0.0000 0
M  V30 3 C 1.7578 0.1953 0.0000 0
M  V30 4 N -0.7812 1.3672 0.0000 0
M  V30 5 N 0.3906 -0.5859 0.0000 0
M  V30 6 N 2.7344 -0.5859 0.0000 0
M  V30 7 O -3.1250 -0.3906 0.0000 0
M  V30 8 H -1.5625 -1.9531 0.0000 0
M  V30 9 H -1.5625 1.7578 0.0000 0
M  V30 10 H 0.5859 -1.7578 0.0000 0
M  V30 11 H 1.7578 1.1719 0.0000 0
M  V30 12 H 3.5156 0.1953 0.0000 0
M  V30 END ATOM
M  V30 BEGIN BOND
M  V30 1 3 1 2
M  V30 2 1 1 7
M  V30 3 1 1 8
M  V30 4 3 2 4
M  V30 5 2 2 5
M  V30 6 2 3 5
M  V30 7 3 3 6
M  V30 8 1 3 11
M  V30 9 1 4 9
M  V30 10 1 5 10
M  V30 11 1 6 12
M  V30 END BOND
M  V30 END CTAB
M  END
>  <ID>
207
$$$$
Structure_208
Score 	 10.0, smilesprid 	smiles	 smilestrue 	smiles	 similartanimoto 	0	 similardice 	0

   12   11  0  0  0  0            999 V3000
M  V30 BEGIN CTAB
M  V30 COUNTS 12 11 0 0 0
M  V30 BEGIN ATOM
M  V30 1 C -1.7578 -0.7812 0.0000 0
M  V30 2 C -0.5859 0.1953 0.0000 0
M  V30 3 C 1.7578 0.1953 0.0000 0
M  V30 4 N -0.7812 1.3672 0.0000 0
M  V30 5 N 0.3906 -0.5859 0.0000 0
M  V30 6 N 2.7344 -0.5859 0.0000 0
M  V30 7 O -3.1250 -0.3906 0.0000 0
M  V30 8 H -1.5625 -1.9531 0.0000 0
M  V30 9 H -1.5625 1.7578 0.0000 0
M  V30 10 H 0.5859 -1.7578 0.0000 0
M  V30 11 H 1.7578 1.1719 0.0000 0
M  V30 12 H 3.5156 0.1953 0.0000 0
M  V30 END ATOM
M  V30 BEGIN BOND
M  V30 1 1 1 2
M  V30 2 1 1 7
M  V30 3 1 1 8
M  V30 4 1 2 4
M  V30 5 3 2 5
M  V30 6 2 3 5
M  V30 7 3 3 6
M  V30 8 1 3 11
M  V30 9 1 4 9
M  V30 10 1 5 10
M  V30 11 1 6 12
M  V30 END BOND
M  V30 END CTAB
M  END
>  <ID>
208
$$$$
Structure_209
Score 	 10.0, smilesprid 	smiles	 smilestrue 	smiles	 similartanimoto 	0	 similardice 	0

   12   11  0  0  0  0            999 V3000
M  V30 BEGIN CTAB
M  V30 COUNTS 12 11 0 0 0
M  V30 BEGIN ATOM
M  V30 1 C -1.7578 -0.7812 0.0000 0
M  V30 2 C -0.5859 0.1953 0.0000 0
M  V30 3 C 1.7578 0.1953 0.0000 0
M  V30 4 N -0.7812 1.3672 0.0000 0
M  V30 5 N 0.3906 -0.5859 0.0000 0
M  V30 6 N 2.7344 -0.5859 0.0000 0
M  V30 7 O -3.1250 -0.3906 0.0000 0
M  V30 8 H -1.5625 -1.9531 0.0000 0
M  V30 9 H -1.5625 1.7578 0.0000 0
M  V30 10 H 0.5859 -1.7578 0.0000 0
M  V30 11 H 1.7578 1.1719 0.0000 0
M  V30 12 H 3.5156 0.1953 0.0000 0
M  V30 END ATOM
M  V30 BEGIN BOND
M  V30 1 2 1 2
M  V30 2 1 1 7
M  V30 3 1 1 8
M  V30 4 1 2 4
M  V30 5 3 2 5
M  V30 6 2 3 5
M  V30 7 3 3 6
M  V30 8 1 3 11
M  V30 9 1 4 9
M  V30 10 1 5 10
M  V30 11 1 6 12
M  V30 END BOND
M  V30 END CTAB
M  END
>  <ID>
209
$$$$
Structure_210
Score 	 12.0, smilesprid 	smiles	 smilestrue 	smiles	 similartanimoto 	0	 similardice 	0

   12   11  0  0  0  0            999 V3000
M  V30 BEGIN CTAB
M  V30 COUNTS 12 11 0 0 0
M  V30 BEGIN ATOM
M  V30 1 C -1.7578 -0.7812 0.0000 0
M  V30 2 C -0.5859 0.1953 0.0000 0
M  V30 3 C 1.7578 0.1953 0.0000 0
M  V30 4 N -0.7812 1.3672 0.0000 0
M  V30 5 N 0.3906 -0.5859 0.0000 0
M  V30 6 N 2.7344 -0.5859 0.0000 0
M  V30 7 O -3.1250 -0.3906 0.0000 0
M  V30 8 H -1.5625 -1.9531 0.0000 0
M  V30 9 H -1.5625 1.7578 0.0000 0
M  V30 10 H 0.5859 -1.7578 0.0000 0
M  V30 11 H 1.7578 1.1719 0.0000 0
M  V30 12 H 3.5156 0.1953 0.0000 0
M  V30 END ATOM
M  V30 BEGIN BOND
M  V30 1 3 1 2
M  V30 2 1 1 7
M  V30 3 1 1 8
M  V30 4 1 2 4
M  V30 5 3 2 5
M  V30 6 2 3 5
M  V30 7 3 3 6
M  V30 8 1 3 11
M  V30 9 1 4 9
M  V30 10 1 5 10
M  V30 11 1 6 12
M  V30 END BOND
M  V30 END CTAB
M  END
>  <ID>
210
$$$$
Structure_211
Score 	 10.0, smilesprid 	smiles	 smilestrue 	smiles	 similartanimoto 	0	 similardice 	0

   12   11  0  0  0  0            999 V3000
M  V30 BEGIN CTAB
M  V30 COUNTS 12 11 0 0 0
M  V30 BEGIN ATOM
M  V30 1 C -1.7578 -0.7812 0.0000 0
M  V30 2 C -0.5859 0.1953 0.0000 0
M  V30 3 C 1.7578 0.1953 0.0000 0
M  V30 4 N -0.7812 1.3672 0.0000 0
M  V30 5 N 0.3906 -0.5859 0.0000 0
M  V30 6 N 2.7344 -0.5859 0.0000 0
M  V30 7 O -3.1250 -0.3906 0.0000 0
M  V30 8 H -1.5625 -1.9531 0.0000 0
M  V30 9 H -1.5625 1.7578 0.0000 0
M  V30 10 H 0.5859 -1.7578 0.0000 0
M  V30 11 H 1.7578 1.1719 0.0000 0
M  V30 12 H 3.5156 0.1953 0.0000 0
M  V30 END ATOM
M  V30 BEGIN BOND
M  V30 1 1 1 2
M  V30 2 1 1 7
M  V30 3 1 1 8
M  V30 4 2 2 4
M  V30 5 3 2 5
M  V30 6 2 3 5
M  V30 7 3 3 6
M  V30 8 1 3 11
M  V30 9 1 4 9
M  V30 10 1 5 10
M  V30 11 1 6 12
M  V30 END BOND
M  V30 END CTAB
M  END
>  <ID>
211
$$$$
Structure_212
Score 	 10.0, smilesprid 	smiles	 smilestrue 	smiles	 similartanimoto 	0	 similardice 	0

   12   11  0  0  0  0            999 V3000
M  V30 BEGIN CTAB
M  V30 COUNTS 12 11 0 0 0
M  V30 BEGIN ATOM
M  V30 1 C -1.7578 -0.7812 0.0000 0
M  V30 2 C -0.5859 0.1953 0.0000 0
M  V30 3 C 1.7578 0.1953 0.0000 0
M  V30 4 N -0.7812 1.3672 0.0000 0
M  V30 5 N 0.3906 -0.5859 0.0000 0
M  V30 6 N 2.7344 -0.5859 0.0000 0
M  V30 7 O -3.1250 -0.3906 0.0000 0
M  V30 8 H -1.5625 -1.9531 0.0000 0
M  V30 9 H -1.5625 1.7578 0.0000 0
M  V30 10 H 0.5859 -1.7578 0.0000 0
M  V30 11 H 1.7578 1.1719 0.0000 0
M  V30 12 H 3.5156 0.1953 0.0000 0
M  V30 END ATOM
M  V30 BEGIN BOND
M  V30 1 2 1 2
M  V30 2 1 1 7
M  V30 3 1 1 8
M  V30 4 2 2 4
M  V30 5 3 2 5
M  V30 6 2 3 5
M  V30 7 3 3 6
M  V30 8 1 3 11
M  V30 9 1 4 9
M  V30 10 1 5 10
M  V30 11 1 6 12
M  V30 END BOND
M  V30 END CTAB
M  END
>  <ID>
212
$$$$
Structure_213
Score 	 12.0, smilesprid 	smiles	 smilestrue 	smiles	 similartanimoto 	0	 similardice 	0

   12   11  0  0  0  0            999 V3000
M  V30 BEGIN CTAB
M  V30 COUNTS 12 11 0 0 0
M  V30 BEGIN ATOM
M  V30 1 C -1.7578 -0.7812 0.0000 0
M  V30 2 C -0.5859 0.1953 0.0000 0
M  V30 3 C 1.7578 0.1953 0.0000 0
M  V30 4 N -0.7812 1.3672 0.0000 0
M  V30 5 N 0.3906 -0.5859 0.0000 0
M  V30 6 N 2.7344 -0.5859 0.0000 0
M  V30 7 O -3.1250 -0.3906 0.0000 0
M  V30 8 H -1.5625 -1.9531 0.0000 0
M  V30 9 H -1.5625 1.7578 0.0000 0
M  V30 10 H 0.5859 -1.7578 0.0000 0
M  V30 11 H 1.7578 1.1719 0.0000 0
M  V30 12 H 3.5156 0.1953 0.0000 0
M  V30 END ATOM
M  V30 BEGIN BOND
M  V30 1 3 1 2
M  V30 2 1 1 7
M  V30 3 1 1 8
M  V30 4 2 2 4
M  V30 5 3 2 5
M  V30 6 2 3 5
M  V30 7 3 3 6
M  V30 8 1 3 11
M  V30 9 1 4 9
M  V30 10 1 5 10
M  V30 11 1 6 12
M  V30 END BOND
M  V30 END CTAB
M  END
>  <ID>
213
$$$$
Structure_214
Score 	 12.0, smilesprid 	smiles	 smilestrue 	smiles	 similartanimoto 	0	 similardice 	0

   12   11  0  0  0  0            999 V3000
M  V30 BEGIN CTAB
M  V30 COUNTS 12 11 0 0 0
M  V30 BEGIN ATOM
M  V30 1 C -1.7578 -0.7812 0.0000 0
M  V30 2 C -0.5859 0.1953 0.0000 0
M  V30 3 C 1.7578 0.1953 0.0000 0
M  V30 4 N -0.7812 1.3672 0.0000 0
M  V30 5 N 0.3906 -0.5859 0.0000 0
M  V30 6 N 2.7344 -0.5859 0.0000 0
M  V30 7 O -3.1250 -0.3906 0.0000 0
M  V30 8 H -1.5625 -1.9531 0.0000 0
M  V30 9 H -1.5625 1.7578 0.0000 0
M  V30 10 H 0.5859 -1.7578 0.0000 0
M  V30 11 H 1.7578 1.1719 0.0000 0
M  V30 12 H 3.5156 0.1953 0.0000 0
M  V30 END ATOM
M  V30 BEGIN BOND
M  V30 1 1 1 2
M  V30 2 1 1 7
M  V30 3 1 1 8
M  V30 4 3 2 4
M  V30 5 3 2 5
M  V30 6 2 3 5
M  V30 7 3 3 6
M  V30 8 1 3 11
M  V30 9 1 4 9
M  V30 10 1 5 10
M  V30 11 1 6 12
M  V30 END BOND
M  V30 END CTAB
M  END
>  <ID>
214
$$$$
Structure_215
Score 	 12.0, smilesprid 	smiles	 smilestrue 	smiles	 similartanimoto 	0	 similardice 	0

   12   11  0  0  0  0            999 V3000
M  V30 BEGIN CTAB
M  V30 COUNTS 12 11 0 0 0
M  V30 BEGIN ATOM
M  V30 1 C -1.7578 -0.7812 0.0000 0
M  V30 2 C -0.5859 0.1953 0.0000 0
M  V30 3 C 1.7578 0.1953 0.0000 0
M  V30 4 N -0.7812 1.3672 0.0000 0
M  V30 5 N 0.3906 -0.5859 0.0000 0
M  V30 6 N 2.7344 -0.5859 0.0000 0
M  V30 7 O -3.1250 -0.3906 0.0000 0
M  V30 8 H -1.5625 -1.9531 0.0000 0
M  V30 9 H -1.5625 1.7578 0.0000 0
M  V30 10 H 0.5859 -1.7578 0.0000 0
M  V30 11 H 1.7578 1.1719 0.0000 0
M  V30 12 H 3.5156 0.1953 0.0000 0
M  V30 END ATOM
M  V30 BEGIN BOND
M  V30 1 2 1 2
M  V30 2 1 1 7
M  V30 3 1 1 8
M  V30 4 3 2 4
M  V30 5 3 2 5
M  V30 6 2 3 5
M  V30 7 3 3 6
M  V30 8 1 3 11
M  V30 9 1 4 9
M  V30 10 1 5 10
M  V30 11 1 6 12
M  V30 END BOND
M  V30 END CTAB
M  END
>  <ID>
215
$$$$
Structure_216
Score 	 14.0, smilesprid 	smiles	 smilestrue 	smiles	 similartanimoto 	0	 similardice 	0

   12   11  0  0  0  0            999 V3000
M  V30 BEGIN CTAB
M  V30 COUNTS 12 11 0 0 0
M  V30 BEGIN ATOM
M  V30 1 C -1.7578 -0.7812 0.0000 0
M  V30 2 C -0.5859 0.1953 0.0000 0
M  V30 3 C 1.7578 0.1953 0.0000 0
M  V30 4 N -0.7812 1.3672 0.0000 0
M  V30 5 N 0.3906 -0.5859 0.0000 0
M  V30 6 N 2.7344 -0.5859 0.0000 0
M  V30 7 O -3.1250 -0.3906 0.0000 0
M  V30 8 H -1.5625 -1.9531 0.0000 0
M  V30 9 H -1.5625 1.7578 0.0000 0
M  V30 10 H 0.5859 -1.7578 0.0000 0
M  V30 11 H 1.7578 1.1719 0.0000 0
M  V30 12 H 3.5156 0.1953 0.0000 0
M  V30 END ATOM
M  V30 BEGIN BOND
M  V30 1 3 1 2
M  V30 2 1 1 7
M  V30 3 1 1 8
M  V30 4 3 2 4
M  V30 5 3 2 5
M  V30 6 2 3 5
M  V30 7 3 3 6
M  V30 8 1 3 11
M  V30 9 1 4 9
M  V30 10 1 5 10
M  V30 11 1 6 12
M  V30 END BOND
M  V30 END CTAB
M  END
>  <ID>
216
$$$$
Structure_217
Score 	 10.0, smilesprid 	smiles	 smilestrue 	smiles	 similartanimoto 	0	 similardice 	0

   12   11  0  0  0  0            999 V3000
M  V30 BEGIN CTAB
M  V30 COUNTS 12 11 0 0 0
M  V30 BEGIN ATOM
M  V30 1 C -1.7578 -0.7812 0.0000 0
M  V30 2 C -0.5859 0.1953 0.0000 0
M  V30 3 C 1.7578 0.1953 0.0000 0
M  V30 4 N -0.7812 1.3672 0.0000 0
M  V30 5 N 0.3906 -0.5859 0.0000 0
M  V30 6 N 2.7344 -0.5859 0.0000 0
M  V30 7 O -3.1250 -0.3906 0.0000 0
M  V30 8 H -1.5625 -1.9531 0.0000 0
M  V30 9 H -1.5625 1.7578 0.0000 0
M  V30 10 H 0.5859 -1.7578 0.0000 0
M  V30 11 H 1.7578 1.1719 0.0000 0
M  V30 12 H 3.5156 0.1953 0.0000 0
M  V30 END ATOM
M  V30 BEGIN BOND
M  V30 1 1 1 2
M  V30 2 1 1 7
M  V30 3 1 1 8
M  V30 4 1 2 4
M  V30 5 1 2 5
M  V30 6 3 3 5
M  V30 7 3 3 6
M  V30 8 1 3 11
M  V30 9 1 4 9
M  V30 10 1 5 10
M  V30 11 1 6 12
M  V30 END BOND
M  V30 END CTAB
M  END
>  <ID>
217
$$$$
Structure_218
Score 	 8.0, smilesprid 	smiles	 smilestrue 	smiles	 similartanimoto 	0	 similardice 	0

   12   11  0  0  0  0            999 V3000
M  V30 BEGIN CTAB
M  V30 COUNTS 12 11 0 0 0
M  V30 BEGIN ATOM
M  V30 1 C -1.7578 -0.7812 0.0000 0
M  V30 2 C -0.5859 0.1953 0.0000 0
M  V30 3 C 1.7578 0.1953 0.0000 0
M  V30 4 N -0.7812 1.3672 0.0000 0
M  V30 5 N 0.3906 -0.5859 0.0000 0
M  V30 6 N 2.7344 -0.5859 0.0000 0
M  V30 7 O -3.1250 -0.3906 0.0000 0
M  V30 8 H -1.5625 -1.9531 0.0000 0
M  V30 9 H -1.5625 1.7578 0.0000 0
M  V30 10 H 0.5859 -1.7578 0.0000 0
M  V30 11 H 1.7578 1.1719 0.0000 0
M  V30 12 H 3.5156 0.1953 0.0000 0
M  V30 END ATOM
M  V30 BEGIN BOND
M  V30 1 2 1 2
M  V30 2 1 1 7
M  V30 3 1 1 8
M  V30 4 1 2 4
M  V30 5 1 2 5
M  V30 6 3 3 5
M  V30 7 3 3 6
M  V30 8 1 3 11
M  V30 9 1 4 9
M  V30 10 1 5 10
M  V30 11 1 6 12
M  V30 END BOND
M  V30 END CTAB
M  END
>  <ID>
218
$$$$
Structure_219
Score 	 10.0, smilesprid 	smiles	 smilestrue 	smiles	 similartanimoto 	0	 similardice 	0

   12   11  0  0  0  0            999 V3000
M  V30 BEGIN CTAB
M  V30 COUNTS 12 11 0 0 0
M  V30 BEGIN ATOM
M  V30 1 C -1.7578 -0.7812 0.0000 0
M  V30 2 C -0.5859 0.1953 0.0000 0
M  V30 3 C 1.7578 0.1953 0.0000 0
M  V30 4 N -0.7812 1.3672 0.0000 0
M  V30 5 N 0.3906 -0.5859 0.0000 0
M  V30 6 N 2.7344 -0.5859 0.0000 0
M  V30 7 O -3.1250 -0.3906 0.0000 0
M  V30 8 H -1.5625 -1.9531 0.0000 0
M  V30 9 H -1.5625 1.7578 0.0000 0
M  V30 10 H 0.5859 -1.7578 0.0000 0
M  V30 11 H 1.7578 1.1719 0.0000 0
M  V30 12 H 3.5156 0.1953 0.0000 0
M  V30 END ATOM
M  V30 BEGIN BOND
M  V30 1 3 1 2
M  V30 2 1 1 7
M  V30 3 1 1 8
M  V30 4 1 2 4
M  V30 5 1 2 5
M  V30 6 3 3 5
M  V30 7 3 3 6
M  V30 8 1 3 11
M  V30 9 1 4 9
M  V30 10 1 5 10
M  V30 11 1 6 12
M  V30 END BOND
M  V30 END CTAB
M  END
>  <ID>
219
$$$$
Structure_220
Score 	 8.0, smilesprid 	smiles	 smilestrue 	smiles	 similartanimoto 	0	 similardice 	0

   12   11  0  0  0  0            999 V3000
M  V30 BEGIN CTAB
M  V30 COUNTS 12 11 0 0 0
M  V30 BEGIN ATOM
M  V30 1 C -1.7578 -0.7812 0.0000 0
M  V30 2 C -0.5859 0.1953 0.0000 0
M  V30 3 C 1.7578 0.1953 0.0000 0
M  V30 4 N -0.7812 1.3672 0.0000 0
M  V30 5 N 0.3906 -0.5859 0.0000 0
M  V30 6 N 2.7344 -0.5859 0.0000 0
M  V30 7 O -3.1250 -0.3906 0.0000 0
M  V30 8 H -1.5625 -1.9531 0.0000 0
M  V30 9 H -1.5625 1.7578 0.0000 0
M  V30 10 H 0.5859 -1.7578 0.0000 0
M  V30 11 H 1.7578 1.1719 0.0000 0
M  V30 12 H 3.5156 0.1953 0.0000 0
M  V30 END ATOM
M  V30 BEGIN BOND
M  V30 1 1 1 2
M  V30 2 1 1 7
M  V30 3 1 1 8
M  V30 4 2 2 4
M  V30 5 1 2 5
M  V30 6 3 3 5
M  V30 7 3 3 6
M  V30 8 1 3 11
M  V30 9 1 4 9
M  V30 10 1 5 10
M  V30 11 1 6 12
M  V30 END BOND
M  V30 END CTAB
M  END
>  <ID>
220
$$$$
Structure_221
Score 	 8.0, smilesprid 	smiles	 smilestrue 	smiles	 similartanimoto 	0	 similardice 	0

   12   11  0  0  0  0            999 V3000
M  V30 BEGIN CTAB
M  V30 COUNTS 12 11 0 0 0
M  V30 BEGIN ATOM
M  V30 1 C -1.7578 -0.7812 0.0000 0
M  V30 2 C -0.5859 0.1953 0.0000 0
M  V30 3 C 1.7578 0.1953 0.0000 0
M  V30 4 N -0.7812 1.3672 0.0000 0
M  V30 5 N 0.3906 -0.5859 0.0000 0
M  V30 6 N 2.7344 -0.5859 0.0000 0
M  V30 7 O -3.1250 -0.3906 0.0000 0
M  V30 8 H -1.5625 -1.9531 0.0000 0
M  V30 9 H -1.5625 1.7578 0.0000 0
M  V30 10 H 0.5859 -1.7578 0.0000 0
M  V30 11 H 1.7578 1.1719 0.0000 0
M  V30 12 H 3.5156 0.1953 0.0000 0
M  V30 END ATOM
M  V30 BEGIN BOND
M  V30 1 2 1 2
M  V30 2 1 1 7
M  V30 3 1 1 8
M  V30 4 2 2 4
M  V30 5 1 2 5
M  V30 6 3 3 5
M  V30 7 3 3 6
M  V30 8 1 3 11
M  V30 9 1 4 9
M  V30 10 1 5 10
M  V30 11 1 6 12
M  V30 END BOND
M  V30 END CTAB
M  END
>  <ID>
221
$$$$
Structure_222
Score 	 10.0, smilesprid 	smiles	 smilestrue 	smiles	 similartanimoto 	0	 similardice 	0

   12   11  0  0  0  0            999 V3000
M  V30 BEGIN CTAB
M  V30 COUNTS 12 11 0 0 0
M  V30 BEGIN ATOM
M  V30 1 C -1.7578 -0.7812 0.0000 0
M  V30 2 C -0.5859 0.1953 0.0000 0
M  V30 3 C 1.7578 0.1953 0.0000 0
M  V30 4 N -0.7812 1.3672 0.0000 0
M  V30 5 N 0.3906 -0.5859 0.0000 0
M  V30 6 N 2.7344 -0.5859 0.0000 0
M  V30 7 O -3.1250 -0.3906 0.0000 0
M  V30 8 H -1.5625 -1.9531 0.0000 0
M  V30 9 H -1.5625 1.7578 0.0000 0
M  V30 10 H 0.5859 -1.7578 0.0000 0
M  V30 11 H 1.7578 1.1719 0.0000 0
M  V30 12 H 3.5156 0.1953 0.0000 0
M  V30 END ATOM
M  V30 BEGIN BOND
M  V30 1 3 1 2
M  V30 2 1 1 7
M  V30 3 1 1 8
M  V30 4 2 2 4
M  V30 5 1 2 5
M  V30 6 3 3 5
M  V30 7 3 3 6
M  V30 8 1 3 11
M  V30 9 1 4 9
M  V30 10 1 5 10
M  V30 11 1 6 12
M  V30 END BOND
M  V30 END CTAB
M  END
>  <ID>
222
$$$$
Structure_223
Score 	 10.0, smilesprid 	smiles	 smilestrue 	smiles	 similartanimoto 	0	 similardice 	0

   12   11  0  0  0  0            999 V3000
M  V30 BEGIN CTAB
M  V30 COUNTS 12 11 0 0 0
M  V30 BEGIN ATOM
M  V30 1 C -1.7578 -0.7812 0.0000 0
M  V30 2 C -0.5859 0.1953 0.0000 0
M  V30 3 C 1.7578 0.1953 0.0000 0
M  V30 4 N -0.7812 1.3672 0.0000 0
M  V30 5 N 0.3906 -0.5859 0.0000 0
M  V30 6 N 2.7344 -0.5859 0.0000 0
M  V30 7 O -3.1250 -0.3906 0.0000 0
M  V30 8 H -1.5625 -1.9531 0.0000 0
M  V30 9 H -1.5625 1.7578 0.0000 0
M  V30 10 H 0.5859 -1.7578 0.0000 0
M  V30 11 H 1.7578 1.1719 0.0000 0
M  V30 12 H 3.5156 0.1953 0.0000 0
M  V30 END ATOM
M  V30 BEGIN BOND
M  V30 1 1 1 2
M  V30 2 1 1 7
M  V30 3 1 1 8
M  V30 4 3 2 4
M  V30 5 1 2 5
M  V30 6 3 3 5
M  V30 7 3 3 6
M  V30 8 1 3 11
M  V30 9 1 4 9
M  V30 10 1 5 10
M  V30 11 1 6 12
M  V30 END BOND
M  V30 END CTAB
M  END
>  <ID>
223
$$$$
Structure_224
Score 	 10.0, smilesprid 	smiles	 smilestrue 	smiles	 similartanimoto 	0	 similardice 	0

   12   11  0  0  0  0            999 V3000
M  V30 BEGIN CTAB
M  V30 COUNTS 12 11 0 0 0
M  V30 BEGIN ATOM
M  V30 1 C -1.7578 -0.7812 0.0000 0
M  V30 2 C -0.5859 0.1953 0.0000 0
M  V30 3 C 1.7578 0.1953 0.0000 0
M  V30 4 N -0.7812 1.3672 0.0000 0
M  V30 5 N 0.3906 -0.5859 0.0000 0
M  V30 6 N 2.7344 -0.5859 0.0000 0
M  V30 7 O -3.1250 -0.3906 0.0000 0
M  V30 8 H -1.5625 -1.9531 0.0000 0
M  V30 9 H -1.5625 1.7578 0.0000 0
M  V30 10 H 0.5859 -1.7578 0.0000 0
M  V30 11 H 1.7578 1.1719 0.0000 0
M  V30 12 H 3.5156 0.1953 0.0000 0
M  V30 END ATOM
M  V30 BEGIN BOND
M  V30 1 2 1 2
M  V30 2 1 1 7
M  V30 3 1 1 8
M  V30 4 3 2 4
M  V30 5 1 2 5
M  V30 6 3 3 5
M  V30 7 3 3 6
M  V30 8 1 3 11
M  V30 9 1 4 9
M  V30 10 1 5 10
M  V30 11 1 6 12
M  V30 END BOND
M  V30 END CTAB
M  END
>  <ID>
224
$$$$
Structure_225
Score 	 12.0, smilesprid 	smiles	 smilestrue 	smiles	 similartanimoto 	0	 similardice 	0

   12   11  0  0  0  0            999 V3000
M  V30 BEGIN CTAB
M  V30 COUNTS 12 11 0 0 0
M  V30 BEGIN ATOM
M  V30 1 C -1.7578 -0.7812 0.0000 0
M  V30 2 C -0.5859 0.1953 0.0000 0
M  V30 3 C 1.7578 0.1953 0.0000 0
M  V30 4 N -0.7812 1.3672 0.0000 0
M  V30 5 N 0.3906 -0.5859 0.0000 0
M  V30 6 N 2.7344 -0.5859 0.0000 0
M  V30 7 O -3.1250 -0.3906 0.0000 0
M  V30 8 H -1.5625 -1.9531 0.0000 0
M  V30 9 H -1.5625 1.7578 0.0000 0
M  V30 10 H 0.5859 -1.7578 0.0000 0
M  V30 11 H 1.7578 1.1719 0.0000 0
M  V30 12 H 3.5156 0.1953 0.0000 0
M  V30 END ATOM
M  V30 BEGIN BOND
M  V30 1 3 1 2
M  V30 2 1 1 7
M  V30 3 1 1 8
M  V30 4 3 2 4
M  V30 5 1 2 5
M  V30 6 3 3 5
M  V30 7 3 3 6
M  V30 8 1 3 11
M  V30 9 1 4 9
M  V30 10 1 5 10
M  V30 11 1 6 12
M  V30 END BOND
M  V30 END CTAB
M  END
>  <ID>
225
$$$$
Structure_226
Score 	 10.0, smilesprid 	smiles	 smilestrue 	smiles	 similartanimoto 	0	 similardice 	0

   12   11  0  0  0  0            999 V3000
M  V30 BEGIN CTAB
M  V30 COUNTS 12 11 0 0 0
M  V30 BEGIN ATOM
M  V30 1 C -1.7578 -0.7812 0.0000 0
M  V30 2 C -0.5859 0.1953 0.0000 0
M  V30 3 C 1.7578 0.1953 0.0000 0
M  V30 4 N -0.7812 1.3672 0.0000 0
M  V30 5 N 0.3906 -0.5859 0.0000 0
M  V30 6 N 2.7344 -0.5859 0.0000 0
M  V30 7 O -3.1250 -0.3906 0.0000 0
M  V30 8 H -1.5625 -1.9531 0.0000 0
M  V30 9 H -1.5625 1.7578 0.0000 0
M  V30 10 H 0.5859 -1.7578 0.0000 0
M  V30 11 H 1.7578 1.1719 0.0000 0
M  V30 12 H 3.5156 0.1953 0.0000 0
M  V30 END ATOM
M  V30 BEGIN BOND
M  V30 1 1 1 2
M  V30 2 1 1 7
M  V30 3 1 1 8
M  V30 4 1 2 4
M  V30 5 2 2 5
M  V30 6 3 3 5
M  V30 7 3 3 6
M  V30 8 1 3 11
M  V30 9 1 4 9
M  V30 10 1 5 10
M  V30 11 1 6 12
M  V30 END BOND
M  V30 END CTAB
M  END
>  <ID>
226
$$$$
Structure_227
Score 	 10.0, smilesprid 	smiles	 smilestrue 	smiles	 similartanimoto 	0	 similardice 	0

   12   11  0  0  0  0            999 V3000
M  V30 BEGIN CTAB
M  V30 COUNTS 12 11 0 0 0
M  V30 BEGIN ATOM
M  V30 1 C -1.7578 -0.7812 0.0000 0
M  V30 2 C -0.5859 0.1953 0.0000 0
M  V30 3 C 1.7578 0.1953 0.0000 0
M  V30 4 N -0.7812 1.3672 0.0000 0
M  V30 5 N 0.3906 -0.5859 0.0000 0
M  V30 6 N 2.7344 -0.5859 0.0000 0
M  V30 7 O -3.1250 -0.3906 0.0000 0
M  V30 8 H -1.5625 -1.9531 0.0000 0
M  V30 9 H -1.5625 1.7578 0.0000 0
M  V30 10 H 0.5859 -1.7578 0.0000 0
M  V30 11 H 1.7578 1.1719 0.0000 0
M  V30 12 H 3.5156 0.1953 0.0000 0
M  V30 END ATOM
M  V30 BEGIN BOND
M  V30 1 2 1 2
M  V30 2 1 1 7
M  V30 3 1 1 8
M  V30 4 1 2 4
M  V30 5 2 2 5
M  V30 6 3 3 5
M  V30 7 3 3 6
M  V30 8 1 3 11
M  V30 9 1 4 9
M  V30 10 1 5 10
M  V30 11 1 6 12
M  V30 END BOND
M  V30 END CTAB
M  END
>  <ID>
227
$$$$
Structure_228
Score 	 12.0, smilesprid 	smiles	 smilestrue 	smiles	 similartanimoto 	0	 similardice 	0

   12   11  0  0  0  0            999 V3000
M  V30 BEGIN CTAB
M  V30 COUNTS 12 11 0 0 0
M  V30 BEGIN ATOM
M  V30 1 C -1.7578 -0.7812 0.0000 0
M  V30 2 C -0.5859 0.1953 0.0000 0
M  V30 3 C 1.7578 0.1953 0.0000 0
M  V30 4 N -0.7812 1.3672 0.0000 0
M  V30 5 N 0.3906 -0.5859 0.0000 0
M  V30 6 N 2.7344 -0.5859 0.0000 0
M  V30 7 O -3.1250 -0.3906 0.0000 0
M  V30 8 H -1.5625 -1.9531 0.0000 0
M  V30 9 H -1.5625 1.7578 0.0000 0
M  V30 10 H 0.5859 -1.7578 0.0000 0
M  V30 11 H 1.7578 1.1719 0.0000 0
M  V30 12 H 3.5156 0.1953 0.0000 0
M  V30 END ATOM
M  V30 BEGIN BOND
M  V30 1 3 1 2
M  V30 2 1 1 7
M  V30 3 1 1 8
M  V30 4 1 2 4
M  V30 5 2 2 5
M  V30 6 3 3 5
M  V30 7 3 3 6
M  V30 8 1 3 11
M  V30 9 1 4 9
M  V30 10 1 5 10
M  V30 11 1 6 12
M  V30 END BOND
M  V30 END CTAB
M  END
>  <ID>
228
$$$$
Structure_229
Score 	 10.0, smilesprid 	smiles	 smilestrue 	smiles	 similartanimoto 	0	 similardice 	0

   12   11  0  0  0  0            999 V3000
M  V30 BEGIN CTAB
M  V30 COUNTS 12 11 0 0 0
M  V30 BEGIN ATOM
M  V30 1 C -1.7578 -0.7812 0.0000 0
M  V30 2 C -0.5859 0.1953 0.0000 0
M  V30 3 C 1.7578 0.1953 0.0000 0
M  V30 4 N -0.7812 1.3672 0.0000 0
M  V30 5 N 0.3906 -0.5859 0.0000 0
M  V30 6 N 2.7344 -0.5859 0.0000 0
M  V30 7 O -3.1250 -0.3906 0.0000 0
M  V30 8 H -1.5625 -1.9531 0.0000 0
M  V30 9 H -1.5625 1.7578 0.0000 0
M  V30 10 H 0.5859 -1.7578 0.0000 0
M  V30 11 H 1.7578 1.1719 0.0000 0
M  V30 12 H 3.5156 0.1953 0.0000 0
M  V30 END ATOM
M  V30 BEGIN BOND
M  V30 1 1 1 2
M  V30 2 1 1 7
M  V30 3 1 1 8
M  V30 4 2 2 4
M  V30 5 2 2 5
M  V30 6 3 3 5
M  V30 7 3 3 6
M  V30 8 1 3 11
M  V30 9 1 4 9
M  V30 10 1 5 10
M  V30 11 1 6 12
M  V30 END BOND
M  V30 END CTAB
M  END
>  <ID>
229
$$$$
Structure_230
Score 	 10.0, smilesprid 	smiles	 smilestrue 	smiles	 similartanimoto 	0	 similardice 	0

   12   11  0  0  0  0            999 V3000
M  V30 BEGIN CTAB
M  V30 COUNTS 12 11 0 0 0
M  V30 BEGIN ATOM
M  V30 1 C -1.7578 -0.7812 0.0000 0
M  V30 2 C -0.5859 0.1953 0.0000 0
M  V30 3 C 1.7578 0.1953 0.0000 0
M  V30 4 N -0.7812 1.3672 0.0000 0
M  V30 5 N 0.3906 -0.5859 0.0000 0
M  V30 6 N 2.7344 -0.5859 0.0000 0
M  V30 7 O -3.1250 -0.3906 0.0000 0
M  V30 8 H -1.5625 -1.9531 0.0000 0
M  V30 9 H -1.5625 1.7578 0.0000 0
M  V30 10 H 0.5859 -1.7578 0.0000 0
M  V30 11 H 1.7578 1.1719 0.0000 0
M  V30 12 H 3.5156 0.1953 0.0000 0
M  V30 END ATOM
M  V30 BEGIN BOND
M  V30 1 2 1 2
M  V30 2 1 1 7
M  V30 3 1 1 8
M  V30 4 2 2 4
M  V30 5 2 2 5
M  V30 6 3 3 5
M  V30 7 3 3 6
M  V30 8 1 3 11
M  V30 9 1 4 9
M  V30 10 1 5 10
M  V30 11 1 6 12
M  V30 END BOND
M  V30 END CTAB
M  END
>  <ID>
230
$$$$
Structure_231
Score 	 12.0, smilesprid 	smiles	 smilestrue 	smiles	 similartanimoto 	0	 similardice 	0

   12   11  0  0  0  0            999 V3000
M  V30 BEGIN CTAB
M  V30 COUNTS 12 11 0 0 0
M  V30 BEGIN ATOM
M  V30 1 C -1.7578 -0.7812 0.0000 0
M  V30 2 C -0.5859 0.1953 0.0000 0
M  V30 3 C 1.7578 0.1953 0.0000 0
M  V30 4 N -0.7812 1.3672 0.0000 0
M  V30 5 N 0.3906 -0.5859 0.0000 0
M  V30 6 N 2.7344 -0.5859 0.0000 0
M  V30 7 O -3.1250 -0.3906 0.0000 0
M  V30 8 H -1.5625 -1.9531 0.0000 0
M  V30 9 H -1.5625 1.7578 0.0000 0
M  V30 10 H 0.5859 -1.7578 0.0000 0
M  V30 11 H 1.7578 1.1719 0.0000 0
M  V30 12 H 3.5156 0.1953 0.0000 0
M  V30 END ATOM
M  V30 BEGIN BOND
M  V30 1 3 1 2
M  V30 2 1 1 7
M  V30 3 1 1 8
M  V30 4 2 2 4
M  V30 5 2 2 5
M  V30 6 3 3 5
M  V30 7 3 3 6
M  V30 8 1 3 11
M  V30 9 1 4 9
M  V30 10 1 5 10
M  V30 11 1 6 12
M  V30 END BOND
M  V30 END CTAB
M  END
>  <ID>
231
$$$$
Structure_232
Score 	 12.0, smilesprid 	smiles	 smilestrue 	smiles	 similartanimoto 	0	 similardice 	0

   12   11  0  0  0  0            999 V3000
M  V30 BEGIN CTAB
M  V30 COUNTS 12 11 0 0 0
M  V30 BEGIN ATOM
M  V30 1 C -1.7578 -0.7812 0.0000 0
M  V30 2 C -0.5859 0.1953 0.0000 0
M  V30 3 C 1.7578 0.1953 0.0000 0
M  V30 4 N -0.7812 1.3672 0.0000 0
M  V30 5 N 0.3906 -0.5859 0.0000 0
M  V30 6 N 2.7344 -0.5859 0.0000 0
M  V30 7 O -3.1250 -0.3906 0.0000 0
M  V30 8 H -1.5625 -1.9531 0.0000 0
M  V30 9 H -1.5625 1.7578 0.0000 0
M  V30 10 H 0.5859 -1.7578 0.0000 0
M  V30 11 H 1.7578 1.1719 0.0000 0
M  V30 12 H 3.5156 0.1953 0.0000 0
M  V30 END ATOM
M  V30 BEGIN BOND
M  V30 1 1 1 2
M  V30 2 1 1 7
M  V30 3 1 1 8
M  V30 4 3 2 4
M  V30 5 2 2 5
M  V30 6 3 3 5
M  V30 7 3 3 6
M  V30 8 1 3 11
M  V30 9 1 4 9
M  V30 10 1 5 10
M  V30 11 1 6 12
M  V30 END BOND
M  V30 END CTAB
M  END
>  <ID>
232
$$$$
Structure_233
Score 	 12.0, smilesprid 	smiles	 smilestrue 	smiles	 similartanimoto 	0	 similardice 	0

   12   11  0  0  0  0            999 V3000
M  V30 BEGIN CTAB
M  V30 COUNTS 12 11 0 0 0
M  V30 BEGIN ATOM
M  V30 1 C -1.7578 -0.7812 0.0000 0
M  V30 2 C -0.5859 0.1953 0.0000 0
M  V30 3 C 1.7578 0.1953 0.0000 0
M  V30 4 N -0.7812 1.3672 0.0000 0
M  V30 5 N 0.3906 -0.5859 0.0000 0
M  V30 6 N 2.7344 -0.5859 0.0000 0
M  V30 7 O -3.1250 -0.3906 0.0000 0
M  V30 8 H -1.5625 -1.9531 0.0000 0
M  V30 9 H -1.5625 1.7578 0.0000 0
M  V30 10 H 0.5859 -1.7578 0.0000 0
M  V30 11 H 1.7578 1.1719 0.0000 0
M  V30 12 H 3.5156 0.1953 0.0000 0
M  V30 END ATOM
M  V30 BEGIN BOND
M  V30 1 2 1 2
M  V30 2 1 1 7
M  V30 3 1 1 8
M  V30 4 3 2 4
M  V30 5 2 2 5
M  V30 6 3 3 5
M  V30 7 3 3 6
M  V30 8 1 3 11
M  V30 9 1 4 9
M  V30 10 1 5 10
M  V30 11 1 6 12
M  V30 END BOND
M  V30 END CTAB
M  END
>  <ID>
233
$$$$
Structure_234
Score 	 14.0, smilesprid 	smiles	 smilestrue 	smiles	 similartanimoto 	0	 similardice 	0

   12   11  0  0  0  0            999 V3000
M  V30 BEGIN CTAB
M  V30 COUNTS 12 11 0 0 0
M  V30 BEGIN ATOM
M  V30 1 C -1.7578 -0.7812 0.0000 0
M  V30 2 C -0.5859 0.1953 0.0000 0
M  V30 3 C 1.7578 0.1953 0.0000 0
M  V30 4 N -0.7812 1.3672 0.0000 0
M  V30 5 N 0.3906 -0.5859 0.0000 0
M  V30 6 N 2.7344 -0.5859 0.0000 0
M  V30 7 O -3.1250 -0.3906 0.0000 0
M  V30 8 H -1.5625 -1.9531 0.0000 0
M  V30 9 H -1.5625 1.7578 0.0000 0
M  V30 10 H 0.5859 -1.7578 0.0000 0
M  V30 11 H 1.7578 1.1719 0.0000 0
M  V30 12 H 3.5156 0.1953 0.0000 0
M  V30 END ATOM
M  V30 BEGIN BOND
M  V30 1 3 1 2
M  V30 2 1 1 7
M  V30 3 1 1 8
M  V30 4 3 2 4
M  V30 5 2 2 5
M  V30 6 3 3 5
M  V30 7 3 3 6
M  V30 8 1 3 11
M  V30 9 1 4 9
M  V30 10 1 5 10
M  V30 11 1 6 12
M  V30 END BOND
M  V30 END CTAB
M  END
>  <ID>
234
$$$$
Structure_235
Score 	 12.0, smilesprid 	smiles	 smilestrue 	smiles	 similartanimoto 	0	 similardice 	0

   12   11  0  0  0  0            999 V3000
M  V30 BEGIN CTAB
M  V30 COUNTS 12 11 0 0 0
M  V30 BEGIN ATOM
M  V30 1 C -1.7578 -0.7812 0.0000 0
M  V30 2 C -0.5859 0.1953 0.0000 0
M  V30 3 C 1.7578 0.1953 0.0000 0
M  V30 4 N -0.7812 1.3672 0.0000 0
M  V30 5 N 0.3906 -0.5859 0.0000 0
M  V30 6 N 2.7344 -0.5859 0.0000 0
M  V30 7 O -3.1250 -0.3906 0.0000 0
M  V30 8 H -1.5625 -1.9531 0.0000 0
M  V30 9 H -1.5625 1.7578 0.0000 0
M  V30 10 H 0.5859 -1.7578 0.0000 0
M  V30 11 H 1.7578 1.1719 0.0000 0
M  V30 12 H 3.5156 0.1953 0.0000 0
M  V30 END ATOM
M  V30 BEGIN BOND
M  V30 1 1 1 2
M  V30 2 1 1 7
M  V30 3 1 1 8
M  V30 4 1 2 4
M  V30 5 3 2 5
M  V30 6 3 3 5
M  V30 7 3 3 6
M  V30 8 1 3 11
M  V30 9 1 4 9
M  V30 10 1 5 10
M  V30 11 1 6 12
M  V30 END BOND
M  V30 END CTAB
M  END
>  <ID>
235
$$$$
Structure_236
Score 	 12.0, smilesprid 	smiles	 smilestrue 	smiles	 similartanimoto 	0	 similardice 	0

   12   11  0  0  0  0            999 V3000
M  V30 BEGIN CTAB
M  V30 COUNTS 12 11 0 0 0
M  V30 BEGIN ATOM
M  V30 1 C -1.7578 -0.7812 0.0000 0
M  V30 2 C -0.5859 0.1953 0.0000 0
M  V30 3 C 1.7578 0.1953 0.0000 0
M  V30 4 N -0.7812 1.3672 0.0000 0
M  V30 5 N 0.3906 -0.5859 0.0000 0
M  V30 6 N 2.7344 -0.5859 0.0000 0
M  V30 7 O -3.1250 -0.3906 0.0000 0
M  V30 8 H -1.5625 -1.9531 0.0000 0
M  V30 9 H -1.5625 1.7578 0.0000 0
M  V30 10 H 0.5859 -1.7578 0.0000 0
M  V30 11 H 1.7578 1.1719 0.0000 0
M  V30 12 H 3.5156 0.1953 0.0000 0
M  V30 END ATOM
M  V30 BEGIN BOND
M  V30 1 2 1 2
M  V30 2 1 1 7
M  V30 3 1 1 8
M  V30 4 1 2 4
M  V30 5 3 2 5
M  V30 6 3 3 5
M  V30 7 3 3 6
M  V30 8 1 3 11
M  V30 9 1 4 9
M  V30 10 1 5 10
M  V30 11 1 6 12
M  V30 END BOND
M  V30 END CTAB
M  END
>  <ID>
236
$$$$
Structure_237
Score 	 14.0, smilesprid 	smiles	 smilestrue 	smiles	 similartanimoto 	0	 similardice 	0

   12   11  0  0  0  0            999 V3000
M  V30 BEGIN CTAB
M  V30 COUNTS 12 11 0 0 0
M  V30 BEGIN ATOM
M  V30 1 C -1.7578 -0.7812 0.0000 0
M  V30 2 C -0.5859 0.1953 0.0000 0
M  V30 3 C 1.7578 0.1953 0.0000 0
M  V30 4 N -0.7812 1.3672 0.0000 0
M  V30 5 N 0.3906 -0.5859 0.0000 0
M  V30 6 N 2.7344 -0.5859 0.0000 0
M  V30 7 O -3.1250 -0.3906 0.0000 0
M  V30 8 H -1.5625 -1.9531 0.0000 0
M  V30 9 H -1.5625 1.7578 0.0000 0
M  V30 10 H 0.5859 -1.7578 0.0000 0
M  V30 11 H 1.7578 1.1719 0.0000 0
M  V30 12 H 3.5156 0.1953 0.0000 0
M  V30 END ATOM
M  V30 BEGIN BOND
M  V30 1 3 1 2
M  V30 2 1 1 7
M  V30 3 1 1 8
M  V30 4 1 2 4
M  V30 5 3 2 5
M  V30 6 3 3 5
M  V30 7 3 3 6
M  V30 8 1 3 11
M  V30 9 1 4 9
M  V30 10 1 5 10
M  V30 11 1 6 12
M  V30 END BOND
M  V30 END CTAB
M  END
>  <ID>
237
$$$$
Structure_238
Score 	 12.0, smilesprid 	smiles	 smilestrue 	smiles	 similartanimoto 	0	 similardice 	0

   12   11  0  0  0  0            999 V3000
M  V30 BEGIN CTAB
M  V30 COUNTS 12 11 0 0 0
M  V30 BEGIN ATOM
M  V30 1 C -1.7578 -0.7812 0.0000 0
M  V30 2 C -0.5859 0.1953 0.0000 0
M  V30 3 C 1.7578 0.1953 0.0000 0
M  V30 4 N -0.7812 1.3672 0.0000 0
M  V30 5 N 0.3906 -0.5859 0.0000 0
M  V30 6 N 2.7344 -0.5859 0.0000 0
M  V30 7 O -3.1250 -0.3906 0.0000 0
M  V30 8 H -1.5625 -1.9531 0.0000 0
M  V30 9 H -1.5625 1.7578 0.0000 0
M  V30 10 H 0.5859 -1.7578 0.0000 0
M  V30 11 H 1.7578 1.1719 0.0000 0
M  V30 12 H 3.5156 0.1953 0.0000 0
M  V30 END ATOM
M  V30 BEGIN BOND
M  V30 1 1 1 2
M  V30 2 1 1 7
M  V30 3 1 1 8
M  V30 4 2 2 4
M  V30 5 3 2 5
M  V30 6 3 3 5
M  V30 7 3 3 6
M  V30 8 1 3 11
M  V30 9 1 4 9
M  V30 10 1 5 10
M  V30 11 1 6 12
M  V30 END BOND
M  V30 END CTAB
M  END
>  <ID>
238
$$$$
Structure_239
Score 	 12.0, smilesprid 	smiles	 smilestrue 	smiles	 similartanimoto 	0	 similardice 	0

   12   11  0  0  0  0            999 V3000
M  V30 BEGIN CTAB
M  V30 COUNTS 12 11 0 0 0
M  V30 BEGIN ATOM
M  V30 1 C -1.7578 -0.7812 0.0000 0
M  V30 2 C -0.5859 0.1953 0.0000 0
M  V30 3 C 1.7578 0.1953 0.0000 0
M  V30 4 N -0.7812 1.3672 0.0000 0
M  V30 5 N 0.3906 -0.5859 0.0000 0
M  V30 6 N 2.7344 -0.5859 0.0000 0
M  V30 7 O -3.1250 -0.3906 0.0000 0
M  V30 8 H -1.5625 -1.9531 0.0000 0
M  V30 9 H -1.5625 1.7578 0.0000 0
M  V30 10 H 0.5859 -1.7578 0.0000 0
M  V30 11 H 1.7578 1.1719 0.0000 0
M  V30 12 H 3.5156 0.1953 0.0000 0
M  V30 END ATOM
M  V30 BEGIN BOND
M  V30 1 2 1 2
M  V30 2 1 1 7
M  V30 3 1 1 8
M  V30 4 2 2 4
M  V30 5 3 2 5
M  V30 6 3 3 5
M  V30 7 3 3 6
M  V30 8 1 3 11
M  V30 9 1 4 9
M  V30 10 1 5 10
M  V30 11 1 6 12
M  V30 END BOND
M  V30 END CTAB
M  END
>  <ID>
239
$$$$
Structure_240
Score 	 14.0, smilesprid 	smiles	 smilestrue 	smiles	 similartanimoto 	0	 similardice 	0

   12   11  0  0  0  0            999 V3000
M  V30 BEGIN CTAB
M  V30 COUNTS 12 11 0 0 0
M  V30 BEGIN ATOM
M  V30 1 C -1.7578 -0.7812 0.0000 0
M  V30 2 C -0.5859 0.1953 0.0000 0
M  V30 3 C 1.7578 0.1953 0.0000 0
M  V30 4 N -0.7812 1.3672 0.0000 0
M  V30 5 N 0.3906 -0.5859 0.0000 0
M  V30 6 N 2.7344 -0.5859 0.0000 0
M  V30 7 O -3.1250 -0.3906 0.0000 0
M  V30 8 H -1.5625 -1.9531 0.0000 0
M  V30 9 H -1.5625 1.7578 0.0000 0
M  V30 10 H 0.5859 -1.7578 0.0000 0
M  V30 11 H 1.7578 1.1719 0.0000 0
M  V30 12 H 3.5156 0.1953 0.0000 0
M  V30 END ATOM
M  V30 BEGIN BOND
M  V30 1 3 1 2
M  V30 2 1 1 7
M  V30 3 1 1 8
M  V30 4 2 2 4
M  V30 5 3 2 5
M  V30 6 3 3 5
M  V30 7 3 3 6
M  V30 8 1 3 11
M  V30 9 1 4 9
M  V30 10 1 5 10
M  V30 11 1 6 12
M  V30 END BOND
M  V30 END CTAB
M  END
>  <ID>
240
$$$$
Structure_241
Score 	 14.0, smilesprid 	smiles	 smilestrue 	smiles	 similartanimoto 	0	 similardice 	0

   12   11  0  0  0  0            999 V3000
M  V30 BEGIN CTAB
M  V30 COUNTS 12 11 0 0 0
M  V30 BEGIN ATOM
M  V30 1 C -1.7578 -0.7812 0.0000 0
M  V30 2 C -0.5859 0.1953 0.0000 0
M  V30 3 C 1.7578 0.1953 0.0000 0
M  V30 4 N -0.7812 1.3672 0.0000 0
M  V30 5 N 0.3906 -0.5859 0.0000 0
M  V30 6 N 2.7344 -0.5859 0.0000 0
M  V30 7 O -3.1250 -0.3906 0.0000 0
M  V30 8 H -1.5625 -1.9531 0.0000 0
M  V30 9 H -1.5625 1.7578 0.0000 0
M  V30 10 H 0.5859 -1.7578 0.0000 0
M  V30 11 H 1.7578 1.1719 0.0000 0
M  V30 12 H 3.5156 0.1953 0.0000 0
M  V30 END ATOM
M  V30 BEGIN BOND
M  V30 1 1 1 2
M  V30 2 1 1 7
M  V30 3 1 1 8
M  V30 4 3 2 4
M  V30 5 3 2 5
M  V30 6 3 3 5
M  V30 7 3 3 6
M  V30 8 1 3 11
M  V30 9 1 4 9
M  V30 10 1 5 10
M  V30 11 1 6 12
M  V30 END BOND
M  V30 END CTAB
M  END
>  <ID>
241
$$$$
Structure_242
Score 	 14.0, smilesprid 	smiles	 smilestrue 	smiles	 similartanimoto 	0	 similardice 	0

   12   11  0  0  0  0            999 V3000
M  V30 BEGIN CTAB
M  V30 COUNTS 12 11 0 0 0
M  V30 BEGIN ATOM
M  V30 1 C -1.7578 -0.7812 0.0000 0
M  V30 2 C -0.5859 0.1953 0.0000 0
M  V30 3 C 1.7578 0.1953 0.0000 0
M  V30 4 N -0.7812 1.3672 0.0000 0
M  V30 5 N 0.3906 -0.5859 0.0000 0
M  V30 6 N 2.7344 -0.5859 0.0000 0
M  V30 7 O -3.1250 -0.3906 0.0000 0
M  V30 8 H -1.5625 -1.9531 0.0000 0
M  V30 9 H -1.5625 1.7578 0.0000 0
M  V30 10 H 0.5859 -1.7578 0.0000 0
M  V30 11 H 1.7578 1.1719 0.0000 0
M  V30 12 H 3.5156 0.1953 0.0000 0
M  V30 END ATOM
M  V30 BEGIN BOND
M  V30 1 2 1 2
M  V30 2 1 1 7
M  V30 3 1 1 8
M  V30 4 3 2 4
M  V30 5 3 2 5
M  V30 6 3 3 5
M  V30 7 3 3 6
M  V30 8 1 3 11
M  V30 9 1 4 9
M  V30 10 1 5 10
M  V30 11 1 6 12
M  V30 END BOND
M  V30 END CTAB
M  END
>  <ID>
242
$$$$
Structure_243
Score 	 16.0, smilesprid 	smiles	 smilestrue 	smiles	 similartanimoto 	0	 similardice 	0

   12   11  0  0  0  0            999 V3000
M  V30 BEGIN CTAB
M  V30 COUNTS 12 11 0 0 0
M  V30 BEGIN ATOM
M  V30 1 C -1.7578 -0.7812 0.0000 0
M  V30 2 C -0.5859 0.1953 0.0000 0
M  V30 3 C 1.7578 0.1953 0.0000 0
M  V30 4 N -0.7812 1.3672 0.0000 0
M  V30 5 N 0.3906 -0.5859 0.0000 0
M  V30 6 N 2.7344 -0.5859 0.0000 0
M  V30 7 O -3.1250 -0.3906 0.0000 0
M  V30 8 H -1.5625 -1.9531 0.0000 0
M  V30 9 H -1.5625 1.7578 0.0000 0
M  V30 10 H 0.5859 -1.7578 0.0000 0
M  V30 11 H 1.7578 1.1719 0.0000 0
M  V30 12 H 3.5156 0.1953 0.0000 0
M  V30 END ATOM
M  V30 BEGIN BOND
M  V30 1 3 1 2
M  V30 2 1 1 7
M  V30 3 1 1 8
M  V30 4 3 2 4
M  V30 5 3 2 5
M  V30 6 3 3 5
M  V30 7 3 3 6
M  V30 8 1 3 11
M  V30 9 1 4 9
M  V30 10 1 5 10
M  V30 11 1 6 12
M  V30 END BOND
M  V30 END CTAB
M  END
>  <ID>
243
$$$$
Structure_244
Score 	 4.0, smilesprid 	smiles	 smilestrue 	smiles	 similartanimoto 	0	 similardice 	0

   12   11  0  0  0  0            999 V3000
M  V30 BEGIN CTAB
M  V30 COUNTS 12 11 0 0 0
M  V30 BEGIN ATOM
M  V30 1 C -1.7578 -0.7812 0.0000 0
M  V30 2 C -0.5859 0.1953 0.0000 0
M  V30 3 C 1.7578 0.1953 0.0000 0
M  V30 4 N -0.7812 1.3672 0.0000 0
M  V30 5 N 0.3906 -0.5859 0.0000 0
M  V30 6 N 2.7344 -0.5859 0.0000 0
M  V30 7 O -3.1250 -0.3906 0.0000 0
M  V30 8 H -1.5625 -1.9531 0.0000 0
M  V30 9 H -1.5625 1.7578 0.0000 0
M  V30 10 H 0.5859 -1.7578 0.0000 0
M  V30 11 H 1.7578 1.1719 0.0000 0
M  V30 12 H 3.5156 0.1953 0.0000 0
M  V30 END ATOM
M  V30 BEGIN BOND
M  V30 1 1 1 2
M  V30 2 2 1 7
M  V30 3 1 1 8
M  V30 4 1 2 4
M  V30 5 1 2 5
M  V30 6 1 3 5
M  V30 7 1 3 6
M  V30 8 1 3 11
M  V30 9 1 4 9
M  V30 10 1 5 10
M  V30 11 1 6 12
M  V30 END BOND
M  V30 END CTAB
M  END
>  <ID>
244
$$$$
Structure_245
Score 	 4.0, smilesprid 	smiles	 smilestrue 	smiles	 similartanimoto 	0	 similardice 	0

   12   11  0  0  0  0            999 V3000
M  V30 BEGIN CTAB
M  V30 COUNTS 12 11 0 0 0
M  V30 BEGIN ATOM
M  V30 1 C -1.7578 -0.7812 0.0000 0
M  V30 2 C -0.5859 0.1953 0.0000 0
M  V30 3 C 1.7578 0.1953 0.0000 0
M  V30 4 N -0.7812 1.3672 0.0000 0
M  V30 5 N 0.3906 -0.5859 0.0000 0
M  V30 6 N 2.7344 -0.5859 0.0000 0
M  V30 7 O -3.1250 -0.3906 0.0000 0
M  V30 8 H -1.5625 -1.9531 0.0000 0
M  V30 9 H -1.5625 1.7578 0.0000 0
M  V30 10 H 0.5859 -1.7578 0.0000 0
M  V30 11 H 1.7578 1.1719 0.0000 0
M  V30 12 H 3.5156 0.1953 0.0000 0
M  V30 END ATOM
M  V30 BEGIN BOND
M  V30 1 2 1 2
M  V30 2 2 1 7
M  V30 3 1 1 8
M  V30 4 1 2 4
M  V30 5 1 2 5
M  V30 6 1 3 5
M  V30 7 1 3 6
M  V30 8 1 3 11
M  V30 9 1 4 9
M  V30 10 1 5 10
M  V30 11 1 6 12
M  V30 END BOND
M  V30 END CTAB
M  END
>  <ID>
245
$$$$
Structure_246
Score 	 6.0, smilesprid 	smiles	 smilestrue 	smiles	 similartanimoto 	0	 similardice 	0

   12   11  0  0  0  0            999 V3000
M  V30 BEGIN CTAB
M  V30 COUNTS 12 11 0 0 0
M  V30 BEGIN ATOM
M  V30 1 C -1.7578 -0.7812 0.0000 0
M  V30 2 C -0.5859 0.1953 0.0000 0
M  V30 3 C 1.7578 0.1953 0.0000 0
M  V30 4 N -0.7812 1.3672 0.0000 0
M  V30 5 N 0.3906 -0.5859 0.0000 0
M  V30 6 N 2.7344 -0.5859 0.0000 0
M  V30 7 O -3.1250 -0.3906 0.0000 0
M  V30 8 H -1.5625 -1.9531 0.0000 0
M  V30 9 H -1.5625 1.7578 0.0000 0
M  V30 10 H 0.5859 -1.7578 0.0000 0
M  V30 11 H 1.7578 1.1719 0.0000 0
M  V30 12 H 3.5156 0.1953 0.0000 0
M  V30 END ATOM
M  V30 BEGIN BOND
M  V30 1 3 1 2
M  V30 2 2 1 7
M  V30 3 1 1 8
M  V30 4 1 2 4
M  V30 5 1 2 5
M  V30 6 1 3 5
M  V30 7 1 3 6
M  V30 8 1 3 11
M  V30 9 1 4 9
M  V30 10 1 5 10
M  V30 11 1 6 12
M  V30 END BOND
M  V30 END CTAB
M  END
>  <ID>
246
$$$$
Structure_247
Score 	 2.0, smilesprid 	smiles	 smilestrue 	smiles	 similartanimoto 	0	 similardice 	0

   12   11  0  0  0  0            999 V3000
M  V30 BEGIN CTAB
M  V30 COUNTS 12 11 0 0 0
M  V30 BEGIN ATOM
M  V30 1 C -1.7578 -0.7812 0.0000 0
M  V30 2 C -0.5859 0.1953 0.0000 0
M  V30 3 C 1.7578 0.1953 0.0000 0
M  V30 4 N -0.7812 1.3672 0.0000 0
M  V30 5 N 0.3906 -0.5859 0.0000 0
M  V30 6 N 2.7344 -0.5859 0.0000 0
M  V30 7 O -3.1250 -0.3906 0.0000 0
M  V30 8 H -1.5625 -1.9531 0.0000 0
M  V30 9 H -1.5625 1.7578 0.0000 0
M  V30 10 H 0.5859 -1.7578 0.0000 0
M  V30 11 H 1.7578 1.1719 0.0000 0
M  V30 12 H 3.5156 0.1953 0.0000 0
M  V30 END ATOM
M  V30 BEGIN BOND
M  V30 1 1 1 2
M  V30 2 2 1 7
M  V30 3 1 1 8
M  V30 4 2 2 4
M  V30 5 1 2 5
M  V30 6 1 3 5
M  V30 7 1 3 6
M  V30 8 1 3 11
M  V30 9 1 4 9
M  V30 10 1 5 10
M  V30 11 1 6 12
M  V30 END BOND
M  V30 END CTAB
M  END
>  <ID>
247
$$$$
Structure_248
Score 	 4.0, smilesprid 	smiles	 smilestrue 	smiles	 similartanimoto 	0	 similardice 	0

   12   11  0  0  0  0            999 V3000
M  V30 BEGIN CTAB
M  V30 COUNTS 12 11 0 0 0
M  V30 BEGIN ATOM
M  V30 1 C -1.7578 -0.7812 0.0000 0
M  V30 2 C -0.5859 0.1953 0.0000 0
M  V30 3 C 1.7578 0.1953 0.0000 0
M  V30 4 N -0.7812 1.3672 0.0000 0
M  V30 5 N 0.3906 -0.5859 0.0000 0
M  V30 6 N 2.7344 -0.5859 0.0000 0
M  V30 7 O -3.1250 -0.3906 0.0000 0
M  V30 8 H -1.5625 -1.9531 0.0000 0
M  V30 9 H -1.5625 1.7578 0.0000 0
M  V30 10 H 0.5859 -1.7578 0.0000 0
M  V30 11 H 1.7578 1.1719 0.0000 0
M  V30 12 H 3.5156 0.1953 0.0000 0
M  V30 END ATOM
M  V30 BEGIN BOND
M  V30 1 2 1 2
M  V30 2 2 1 7
M  V30 3 1 1 8
M  V30 4 2 2 4
M  V30 5 1 2 5
M  V30 6 1 3 5
M  V30 7 1 3 6
M  V30 8 1 3 11
M  V30 9 1 4 9
M  V30 10 1 5 10
M  V30 11 1 6 12
M  V30 END BOND
M  V30 END CTAB
M  END
>  <ID>
248
$$$$
Structure_249
Score 	 6.0, smilesprid 	smiles	 smilestrue 	smiles	 similartanimoto 	0	 similardice 	0

   12   11  0  0  0  0            999 V3000
M  V30 BEGIN CTAB
M  V30 COUNTS 12 11 0 0 0
M  V30 BEGIN ATOM
M  V30 1 C -1.7578 -0.7812 0.0000 0
M  V30 2 C -0.5859 0.1953 0.0000 0
M  V30 3 C 1.7578 0.1953 0.0000 0
M  V30 4 N -0.7812 1.3672 0.0000 0
M  V30 5 N 0.3906 -0.5859 0.0000 0
M  V30 6 N 2.7344 -0.5859 0.0000 0
M  V30 7 O -3.1250 -0.3906 0.0000 0
M  V30 8 H -1.5625 -1.9531 0.0000 0
M  V30 9 H -1.5625 1.7578 0.0000 0
M  V30 10 H 0.5859 -1.7578 0.0000 0
M  V30 11 H 1.7578 1.1719 0.0000 0
M  V30 12 H 3.5156 0.1953 0.0000 0
M  V30 END ATOM
M  V30 BEGIN BOND
M  V30 1 3 1 2
M  V30 2 2 1 7
M  V30 3 1 1 8
M  V30 4 2 2 4
M  V30 5 1 2 5
M  V30 6 1 3 5
M  V30 7 1 3 6
M  V30 8 1 3 11
M  V30 9 1 4 9
M  V30 10 1 5 10
M  V30 11 1 6 12
M  V30 END BOND
M  V30 END CTAB
M  END
>  <ID>
249
$$$$
Structure_250
Score 	 4.0, smilesprid 	smiles	 smilestrue 	smiles	 similartanimoto 	0	 similardice 	0

   12   11  0  0  0  0            999 V3000
M  V30 BEGIN CTAB
M  V30 COUNTS 12 11 0 0 0
M  V30 BEGIN ATOM
M  V30 1 C -1.7578 -0.7812 0.0000 0
M  V30 2 C -0.5859 0.1953 0.0000 0
M  V30 3 C 1.7578 0.1953 0.0000 0
M  V30 4 N -0.7812 1.3672 0.0000 0
M  V30 5 N 0.3906 -0.5859 0.0000 0
M  V30 6 N 2.7344 -0.5859 0.0000 0
M  V30 7 O -3.1250 -0.3906 0.0000 0
M  V30 8 H -1.5625 -1.9531 0.0000 0
M  V30 9 H -1.5625 1.7578 0.0000 0
M  V30 10 H 0.5859 -1.7578 0.0000 0
M  V30 11 H 1.7578 1.1719 0.0000 0
M  V30 12 H 3.5156 0.1953 0.0000 0
M  V30 END ATOM
M  V30 BEGIN BOND
M  V30 1 1 1 2
M  V30 2 2 1 7
M  V30 3 1 1 8
M  V30 4 3 2 4
M  V30 5 1 2 5
M  V30 6 1 3 5
M  V30 7 1 3 6
M  V30 8 1 3 11
M  V30 9 1 4 9
M  V30 10 1 5 10
M  V30 11 1 6 12
M  V30 END BOND
M  V30 END CTAB
M  END
>  <ID>
250
$$$$
Structure_251
Score 	 6.0, smilesprid 	smiles	 smilestrue 	smiles	 similartanimoto 	0	 similardice 	0

   12   11  0  0  0  0            999 V3000
M  V30 BEGIN CTAB
M  V30 COUNTS 12 11 0 0 0
M  V30 BEGIN ATOM
M  V30 1 C -1.7578 -0.7812 0.0000 0
M  V30 2 C -0.5859 0.1953 0.0000 0
M  V30 3 C 1.7578 0.1953 0.0000 0
M  V30 4 N -0.7812 1.3672 0.0000 0
M  V30 5 N 0.3906 -0.5859 0.0000 0
M  V30 6 N 2.7344 -0.5859 0.0000 0
M  V30 7 O -3.1250 -0.3906 0.0000 0
M  V30 8 H -1.5625 -1.9531 0.0000 0
M  V30 9 H -1.5625 1.7578 0.0000 0
M  V30 10 H 0.5859 -1.7578 0.0000 0
M  V30 11 H 1.7578 1.1719 0.0000 0
M  V30 12 H 3.5156 0.1953 0.0000 0
M  V30 END ATOM
M  V30 BEGIN BOND
M  V30 1 2 1 2
M  V30 2 2 1 7
M  V30 3 1 1 8
M  V30 4 3 2 4
M  V30 5 1 2 5
M  V30 6 1 3 5
M  V30 7 1 3 6
M  V30 8 1 3 11
M  V30 9 1 4 9
M  V30 10 1 5 10
M  V30 11 1 6 12
M  V30 END BOND
M  V30 END CTAB
M  END
>  <ID>
251
$$$$
Structure_252
Score 	 8.0, smilesprid 	smiles	 smilestrue 	smiles	 similartanimoto 	0	 similardice 	0

   12   11  0  0  0  0            999 V3000
M  V30 BEGIN CTAB
M  V30 COUNTS 12 11 0 0 0
M  V30 BEGIN ATOM
M  V30 1 C -1.7578 -0.7812 0.0000 0
M  V30 2 C -0.5859 0.1953 0.0000 0
M  V30 3 C 1.7578 0.1953 0.0000 0
M  V30 4 N -0.7812 1.3672 0.0000 0
M  V30 5 N 0.3906 -0.5859 0.0000 0
M  V30 6 N 2.7344 -0.5859 0.0000 0
M  V30 7 O -3.1250 -0.3906 0.0000 0
M  V30 8 H -1.5625 -1.9531 0.0000 0
M  V30 9 H -1.5625 1.7578 0.0000 0
M  V30 10 H 0.5859 -1.7578 0.0000 0
M  V30 11 H 1.7578 1.1719 0.0000 0
M  V30 12 H 3.5156 0.1953 0.0000 0
M  V30 END ATOM
M  V30 BEGIN BOND
M  V30 1 3 1 2
M  V30 2 2 1 7
M  V30 3 1 1 8
M  V30 4 3 2 4
M  V30 5 1 2 5
M  V30 6 1 3 5
M  V30 7 1 3 6
M  V30 8 1 3 11
M  V30 9 1 4 9
M  V30 10 1 5 10
M  V30 11 1 6 12
M  V30 END BOND
M  V30 END CTAB
M  END
>  <ID>
252
$$$$
Structure_253
Score 	 4.0, smilesprid 	smiles	 smilestrue 	smiles	 similartanimoto 	0	 similardice 	0

   12   11  0  0  0  0            999 V3000
M  V30 BEGIN CTAB
M  V30 COUNTS 12 11 0 0 0
M  V30 BEGIN ATOM
M  V30 1 C -1.7578 -0.7812 0.0000 0
M  V30 2 C -0.5859 0.1953 0.0000 0
M  V30 3 C 1.7578 0.1953 0.0000 0
M  V30 4 N -0.7812 1.3672 0.0000 0
M  V30 5 N 0.3906 -0.5859 0.0000 0
M  V30 6 N 2.7344 -0.5859 0.0000 0
M  V30 7 O -3.1250 -0.3906 0.0000 0
M  V30 8 H -1.5625 -1.9531 0.0000 0
M  V30 9 H -1.5625 1.7578 0.0000 0
M  V30 10 H 0.5859 -1.7578 0.0000 0
M  V30 11 H 1.7578 1.1719 0.0000 0
M  V30 12 H 3.5156 0.1953 0.0000 0
M  V30 END ATOM
M  V30 BEGIN BOND
M  V30 1 1 1 2
M  V30 2 2 1 7
M  V30 3 1 1 8
M  V30 4 1 2 4
M  V30 5 2 2 5
M  V30 6 1 3 5
M  V30 7 1 3 6
M  V30 8 1 3 11
M  V30 9 1 4 9
M  V30 10 1 5 10
M  V30 11 1 6 12
M  V30 END BOND
M  V30 END CTAB
M  END
>  <ID>
253
$$$$
Structure_254
Score 	 6.0, smilesprid 	smiles	 smilestrue 	smiles	 similartanimoto 	0	 similardice 	0

   12   11  0  0  0  0            999 V3000
M  V30 BEGIN CTAB
M  V30 COUNTS 12 11 0 0 0
M  V30 BEGIN ATOM
M  V30 1 C -1.7578 -0.7812 0.0000 0
M  V30 2 C -0.5859 0.1953 0.0000 0
M  V30 3 C 1.7578 0.1953 0.0000 0
M  V30 4 N -0.7812 1.3672 0.0000 0
M  V30 5 N 0.3906 -0.5859 0.0000 0
M  V30 6 N 2.7344 -0.5859 0.0000 0
M  V30 7 O -3.1250 -0.3906 0.0000 0
M  V30 8 H -1.5625 -1.9531 0.0000 0
M  V30 9 H -1.5625 1.7578 0.0000 0
M  V30 10 H 0.5859 -1.7578 0.0000 0
M  V30 11 H 1.7578 1.1719 0.0000 0
M  V30 12 H 3.5156 0.1953 0.0000 0
M  V30 END ATOM
M  V30 BEGIN BOND
M  V30 1 2 1 2
M  V30 2 2 1 7
M  V30 3 1 1 8
M  V30 4 1 2 4
M  V30 5 2 2 5
M  V30 6 1 3 5
M  V30 7 1 3 6
M  V30 8 1 3 11
M  V30 9 1 4 9
M  V30 10 1 5 10
M  V30 11 1 6 12
M  V30 END BOND
M  V30 END CTAB
M  END
>  <ID>
254
$$$$
Structure_255
Score 	 8.0, smilesprid 	smiles	 smilestrue 	smiles	 similartanimoto 	0	 similardice 	0

   12   11  0  0  0  0            999 V3000
M  V30 BEGIN CTAB
M  V30 COUNTS 12 11 0 0 0
M  V30 BEGIN ATOM
M  V30 1 C -1.7578 -0.7812 0.0000 0
M  V30 2 C -0.5859 0.1953 0.0000 0
M  V30 3 C 1.7578 0.1953 0.0000 0
M  V30 4 N -0.7812 1.3672 0.0000 0
M  V30 5 N 0.3906 -0.5859 0.0000 0
M  V30 6 N 2.7344 -0.5859 0.0000 0
M  V30 7 O -3.1250 -0.3906 0.0000 0
M  V30 8 H -1.5625 -1.9531 0.0000 0
M  V30 9 H -1.5625 1.7578 0.0000 0
M  V30 10 H 0.5859 -1.7578 0.0000 0
M  V30 11 H 1.7578 1.1719 0.0000 0
M  V30 12 H 3.5156 0.1953 0.0000 0
M  V30 END ATOM
M  V30 BEGIN BOND
M  V30 1 3 1 2
M  V30 2 2 1 7
M  V30 3 1 1 8
M  V30 4 1 2 4
M  V30 5 2 2 5
M  V30 6 1 3 5
M  V30 7 1 3 6
M  V30 8 1 3 11
M  V30 9 1 4 9
M  V30 10 1 5 10
M  V30 11 1 6 12
M  V30 END BOND
M  V30 END CTAB
M  END
>  <ID>
255
$$$$
Structure_256
Score 	 4.0, smilesprid 	smiles	 smilestrue 	smiles	 similartanimoto 	0	 similardice 	0

   12   11  0  0  0  0            999 V3000
M  V30 BEGIN CTAB
M  V30 COUNTS 12 11 0 0 0
M  V30 BEGIN ATOM
M  V30 1 C -1.7578 -0.7812 0.0000 0
M  V30 2 C -0.5859 0.1953 0.0000 0
M  V30 3 C 1.7578 0.1953 0.0000 0
M  V30 4 N -0.7812 1.3672 0.0000 0
M  V30 5 N 0.3906 -0.5859 0.0000 0
M  V30 6 N 2.7344 -0.5859 0.0000 0
M  V30 7 O -3.1250 -0.3906 0.0000 0
M  V30 8 H -1.5625 -1.9531 0.0000 0
M  V30 9 H -1.5625 1.7578 0.0000 0
M  V30 10 H 0.5859 -1.7578 0.0000 0
M  V30 11 H 1.7578 1.1719 0.0000 0
M  V30 12 H 3.5156 0.1953 0.0000 0
M  V30 END ATOM
M  V30 BEGIN BOND
M  V30 1 1 1 2
M  V30 2 2 1 7
M  V30 3 1 1 8
M  V30 4 2 2 4
M  V30 5 2 2 5
M  V30 6 1 3 5
M  V30 7 1 3 6
M  V30 8 1 3 11
M  V30 9 1 4 9
M  V30 10 1 5 10
M  V30 11 1 6 12
M  V30 END BOND
M  V30 END CTAB
M  END
>  <ID>
256
$$$$
Structure_257
Score 	 6.0, smilesprid 	smiles	 smilestrue 	smiles	 similartanimoto 	0	 similardice 	0

   12   11  0  0  0  0            999 V3000
M  V30 BEGIN CTAB
M  V30 COUNTS 12 11 0 0 0
M  V30 BEGIN ATOM
M  V30 1 C -1.7578 -0.7812 0.0000 0
M  V30 2 C -0.5859 0.1953 0.0000 0
M  V30 3 C 1.7578 0.1953 0.0000 0
M  V30 4 N -0.7812 1.3672 0.0000 0
M  V30 5 N 0.3906 -0.5859 0.0000 0
M  V30 6 N 2.7344 -0.5859 0.0000 0
M  V30 7 O -3.1250 -0.3906 0.0000 0
M  V30 8 H -1.5625 -1.9531 0.0000 0
M  V30 9 H -1.5625 1.7578 0.0000 0
M  V30 10 H 0.5859 -1.7578 0.0000 0
M  V30 11 H 1.7578 1.1719 0.0000 0
M  V30 12 H 3.5156 0.1953 0.0000 0
M  V30 END ATOM
M  V30 BEGIN BOND
M  V30 1 2 1 2
M  V30 2 2 1 7
M  V30 3 1 1 8
M  V30 4 2 2 4
M  V30 5 2 2 5
M  V30 6 1 3 5
M  V30 7 1 3 6
M  V30 8 1 3 11
M  V30 9 1 4 9
M  V30 10 1 5 10
M  V30 11 1 6 12
M  V30 END BOND
M  V30 END CTAB
M  END
>  <ID>
257
$$$$
Structure_258
Score 	 8.0, smilesprid 	smiles	 smilestrue 	smiles	 similartanimoto 	0	 similardice 	0

   12   11  0  0  0  0            999 V3000
M  V30 BEGIN CTAB
M  V30 COUNTS 12 11 0 0 0
M  V30 BEGIN ATOM
M  V30 1 C -1.7578 -0.7812 0.0000 0
M  V30 2 C -0.5859 0.1953 0.0000 0
M  V30 3 C 1.7578 0.1953 0.0000 0
M  V30 4 N -0.7812 1.3672 0.0000 0
M  V30 5 N 0.3906 -0.5859 0.0000 0
M  V30 6 N 2.7344 -0.5859 0.0000 0
M  V30 7 O -3.1250 -0.3906 0.0000 0
M  V30 8 H -1.5625 -1.9531 0.0000 0
M  V30 9 H -1.5625 1.7578 0.0000 0
M  V30 10 H 0.5859 -1.7578 0.0000 0
M  V30 11 H 1.7578 1.1719 0.0000 0
M  V30 12 H 3.5156 0.1953 0.0000 0
M  V30 END ATOM
M  V30 BEGIN BOND
M  V30 1 3 1 2
M  V30 2 2 1 7
M  V30 3 1 1 8
M  V30 4 2 2 4
M  V30 5 2 2 5
M  V30 6 1 3 5
M  V30 7 1 3 6
M  V30 8 1 3 11
M  V30 9 1 4 9
M  V30 10 1 5 10
M  V30 11 1 6 12
M  V30 END BOND
M  V30 END CTAB
M  END
>  <ID>
258
$$$$
Structure_259
Score 	 6.0, smilesprid 	smiles	 smilestrue 	smiles	 similartanimoto 	0	 similardice 	0

   12   11  0  0  0  0            999 V3000
M  V30 BEGIN CTAB
M  V30 COUNTS 12 11 0 0 0
M  V30 BEGIN ATOM
M  V30 1 C -1.7578 -0.7812 0.0000 0
M  V30 2 C -0.5859 0.1953 0.0000 0
M  V30 3 C 1.7578 0.1953 0.0000 0
M  V30 4 N -0.7812 1.3672 0.0000 0
M  V30 5 N 0.3906 -0.5859 0.0000 0
M  V30 6 N 2.7344 -0.5859 0.0000 0
M  V30 7 O -3.1250 -0.3906 0.0000 0
M  V30 8 H -1.5625 -1.9531 0.0000 0
M  V30 9 H -1.5625 1.7578 0.0000 0
M  V30 10 H 0.5859 -1.7578 0.0000 0
M  V30 11 H 1.7578 1.1719 0.0000 0
M  V30 12 H 3.5156 0.1953 0.0000 0
M  V30 END ATOM
M  V30 BEGIN BOND
M  V30 1 1 1 2
M  V30 2 2 1 7
M  V30 3 1 1 8
M  V30 4 3 2 4
M  V30 5 2 2 5
M  V30 6 1 3 5
M  V30 7 1 3 6
M  V30 8 1 3 11
M  V30 9 1 4 9
M  V30 10 1 5 10
M  V30 11 1 6 12
M  V30 END BOND
M  V30 END CTAB
M  END
>  <ID>
259
$$$$
Structure_260
Score 	 8.0, smilesprid 	smiles	 smilestrue 	smiles	 similartanimoto 	0	 similardice 	0

   12   11  0  0  0  0            999 V3000
M  V30 BEGIN CTAB
M  V30 COUNTS 12 11 0 0 0
M  V30 BEGIN ATOM
M  V30 1 C -1.7578 -0.7812 0.0000 0
M  V30 2 C -0.5859 0.1953 0.0000 0
M  V30 3 C 1.7578 0.1953 0.0000 0
M  V30 4 N -0.7812 1.3672 0.0000 0
M  V30 5 N 0.3906 -0.5859 0.0000 0
M  V30 6 N 2.7344 -0.5859 0.0000 0
M  V30 7 O -3.1250 -0.3906 0.0000 0
M  V30 8 H -1.5625 -1.9531 0.0000 0
M  V30 9 H -1.5625 1.7578 0.0000 0
M  V30 10 H 0.5859 -1.7578 0.0000 0
M  V30 11 H 1.7578 1.1719 0.0000 0
M  V30 12 H 3.5156 0.1953 0.0000 0
M  V30 END ATOM
M  V30 BEGIN BOND
M  V30 1 2 1 2
M  V30 2 2 1 7
M  V30 3 1 1 8
M  V30 4 3 2 4
M  V30 5 2 2 5
M  V30 6 1 3 5
M  V30 7 1 3 6
M  V30 8 1 3 11
M  V30 9 1 4 9
M  V30 10 1 5 10
M  V30 11 1 6 12
M  V30 END BOND
M  V30 END CTAB
M  END
>  <ID>
260
$$$$
Structure_261
Score 	 10.0, smilesprid 	smiles	 smilestrue 	smiles	 similartanimoto 	0	 similardice 	0

   12   11  0  0  0  0            999 V3000
M  V30 BEGIN CTAB
M  V30 COUNTS 12 11 0 0 0
M  V30 BEGIN ATOM
M  V30 1 C -1.7578 -0.7812 0.0000 0
M  V30 2 C -0.5859 0.1953 0.0000 0
M  V30 3 C 1.7578 0.1953 0.0000 0
M  V30 4 N -0.7812 1.3672 0.0000 0
M  V30 5 N 0.3906 -0.5859 0.0000 0
M  V30 6 N 2.7344 -0.5859 0.0000 0
M  V30 7 O -3.1250 -0.3906 0.0000 0
M  V30 8 H -1.5625 -1.9531 0.0000 0
M  V30 9 H -1.5625 1.7578 0.0000 0
M  V30 10 H 0.5859 -1.7578 0.0000 0
M  V30 11 H 1.7578 1.1719 0.0000 0
M  V30 12 H 3.5156 0.1953 0.0000 0
M  V30 END ATOM
M  V30 BEGIN BOND
M  V30 1 3 1 2
M  V30 2 2 1 7
M  V30 3 1 1 8
M  V30 4 3 2 4
M  V30 5 2 2 5
M  V30 6 1 3 5
M  V30 7 1 3 6
M  V30 8 1 3 11
M  V30 9 1 4 9
M  V30 10 1 5 10
M  V30 11 1 6 12
M  V30 END BOND
M  V30 END CTAB
M  END
>  <ID>
261
$$$$
Structure_262
Score 	 6.0, smilesprid 	smiles	 smilestrue 	smiles	 similartanimoto 	0	 similardice 	0

   12   11  0  0  0  0            999 V3000
M  V30 BEGIN CTAB
M  V30 COUNTS 12 11 0 0 0
M  V30 BEGIN ATOM
M  V30 1 C -1.7578 -0.7812 0.0000 0
M  V30 2 C -0.5859 0.1953 0.0000 0
M  V30 3 C 1.7578 0.1953 0.0000 0
M  V30 4 N -0.7812 1.3672 0.0000 0
M  V30 5 N 0.3906 -0.5859 0.0000 0
M  V30 6 N 2.7344 -0.5859 0.0000 0
M  V30 7 O -3.1250 -0.3906 0.0000 0
M  V30 8 H -1.5625 -1.9531 0.0000 0
M  V30 9 H -1.5625 1.7578 0.0000 0
M  V30 10 H 0.5859 -1.7578 0.0000 0
M  V30 11 H 1.7578 1.1719 0.0000 0
M  V30 12 H 3.5156 0.1953 0.0000 0
M  V30 END ATOM
M  V30 BEGIN BOND
M  V30 1 1 1 2
M  V30 2 2 1 7
M  V30 3 1 1 8
M  V30 4 1 2 4
M  V30 5 3 2 5
M  V30 6 1 3 5
M  V30 7 1 3 6
M  V30 8 1 3 11
M  V30 9 1 4 9
M  V30 10 1 5 10
M  V30 11 1 6 12
M  V30 END BOND
M  V30 END CTAB
M  END
>  <ID>
262
$$$$
Structure_263
Score 	 8.0, smilesprid 	smiles	 smilestrue 	smiles	 similartanimoto 	0	 similardice 	0

   12   11  0  0  0  0            999 V3000
M  V30 BEGIN CTAB
M  V30 COUNTS 12 11 0 0 0
M  V30 BEGIN ATOM
M  V30 1 C -1.7578 -0.7812 0.0000 0
M  V30 2 C -0.5859 0.1953 0.0000 0
M  V30 3 C 1.7578 0.1953 0.0000 0
M  V30 4 N -0.7812 1.3672 0.0000 0
M  V30 5 N 0.3906 -0.5859 0.0000 0
M  V30 6 N 2.7344 -0.5859 0.0000 0
M  V30 7 O -3.1250 -0.3906 0.0000 0
M  V30 8 H -1.5625 -1.9531 0.0000 0
M  V30 9 H -1.5625 1.7578 0.0000 0
M  V30 10 H 0.5859 -1.7578 0.0000 0
M  V30 11 H 1.7578 1.1719 0.0000 0
M  V30 12 H 3.5156 0.1953 0.0000 0
M  V30 END ATOM
M  V30 BEGIN BOND
M  V30 1 2 1 2
M  V30 2 2 1 7
M  V30 3 1 1 8
M  V30 4 1 2 4
M  V30 5 3 2 5
M  V30 6 1 3 5
M  V30 7 1 3 6
M  V30 8 1 3 11
M  V30 9 1 4 9
M  V30 10 1 5 10
M  V30 11 1 6 12
M  V30 END BOND
M  V30 END CTAB
M  END
>  <ID>
263
$$$$
Structure_264
Score 	 10.0, smilesprid 	smiles	 smilestrue 	smiles	 similartanimoto 	0	 similardice 	0

   12   11  0  0  0  0            999 V3000
M  V30 BEGIN CTAB
M  V30 COUNTS 12 11 0 0 0
M  V30 BEGIN ATOM
M  V30 1 C -1.7578 -0.7812 0.0000 0
M  V30 2 C -0.5859 0.1953 0.0000 0
M  V30 3 C 1.7578 0.1953 0.0000 0
M  V30 4 N -0.7812 1.3672 0.0000 0
M  V30 5 N 0.3906 -0.5859 0.0000 0
M  V30 6 N 2.7344 -0.5859 0.0000 0
M  V30 7 O -3.1250 -0.3906 0.0000 0
M  V30 8 H -1.5625 -1.9531 0.0000 0
M  V30 9 H -1.5625 1.7578 0.0000 0
M  V30 10 H 0.5859 -1.7578 0.0000 0
M  V30 11 H 1.7578 1.1719 0.0000 0
M  V30 12 H 3.5156 0.1953 0.0000 0
M  V30 END ATOM
M  V30 BEGIN BOND
M  V30 1 3 1 2
M  V30 2 2 1 7
M  V30 3 1 1 8
M  V30 4 1 2 4
M  V30 5 3 2 5
M  V30 6 1 3 5
M  V30 7 1 3 6
M  V30 8 1 3 11
M  V30 9 1 4 9
M  V30 10 1 5 10
M  V30 11 1 6 12
M  V30 END BOND
M  V30 END CTAB
M  END
>  <ID>
264
$$$$
Structure_265
Score 	 6.0, smilesprid 	smiles	 smilestrue 	smiles	 similartanimoto 	0	 similardice 	0

   12   11  0  0  0  0            999 V3000
M  V30 BEGIN CTAB
M  V30 COUNTS 12 11 0 0 0
M  V30 BEGIN ATOM
M  V30 1 C -1.7578 -0.7812 0.0000 0
M  V30 2 C -0.5859 0.1953 0.0000 0
M  V30 3 C 1.7578 0.1953 0.0000 0
M  V30 4 N -0.7812 1.3672 0.0000 0
M  V30 5 N 0.3906 -0.5859 0.0000 0
M  V30 6 N 2.7344 -0.5859 0.0000 0
M  V30 7 O -3.1250 -0.3906 0.0000 0
M  V30 8 H -1.5625 -1.9531 0.0000 0
M  V30 9 H -1.5625 1.7578 0.0000 0
M  V30 10 H 0.5859 -1.7578 0.0000 0
M  V30 11 H 1.7578 1.1719 0.0000 0
M  V30 12 H 3.5156 0.1953 0.0000 0
M  V30 END ATOM
M  V30 BEGIN BOND
M  V30 1 1 1 2
M  V30 2 2 1 7
M  V30 3 1 1 8
M  V30 4 2 2 4
M  V30 5 3 2 5
M  V30 6 1 3 5
M  V30 7 1 3 6
M  V30 8 1 3 11
M  V30 9 1 4 9
M  V30 10 1 5 10
M  V30 11 1 6 12
M  V30 END BOND
M  V30 END CTAB
M  END
>  <ID>
265
$$$$
Structure_266
Score 	 8.0, smilesprid 	smiles	 smilestrue 	smiles	 similartanimoto 	0	 similardice 	0

   12   11  0  0  0  0            999 V3000
M  V30 BEGIN CTAB
M  V30 COUNTS 12 11 0 0 0
M  V30 BEGIN ATOM
M  V30 1 C -1.7578 -0.7812 0.0000 0
M  V30 2 C -0.5859 0.1953 0.0000 0
M  V30 3 C 1.7578 0.1953 0.0000 0
M  V30 4 N -0.7812 1.3672 0.0000 0
M  V30 5 N 0.3906 -0.5859 0.0000 0
M  V30 6 N 2.7344 -0.5859 0.0000 0
M  V30 7 O -3.1250 -0.3906 0.0000 0
M  V30 8 H -1.5625 -1.9531 0.0000 0
M  V30 9 H -1.5625 1.7578 0.0000 0
M  V30 10 H 0.5859 -1.7578 0.0000 0
M  V30 11 H 1.7578 1.1719 0.0000 0
M  V30 12 H 3.5156 0.1953 0.0000 0
M  V30 END ATOM
M  V30 BEGIN BOND
M  V30 1 2 1 2
M  V30 2 2 1 7
M  V30 3 1 1 8
M  V30 4 2 2 4
M  V30 5 3 2 5
M  V30 6 1 3 5
M  V30 7 1 3 6
M  V30 8 1 3 11
M  V30 9 1 4 9
M  V30 10 1 5 10
M  V30 11 1 6 12
M  V30 END BOND
M  V30 END CTAB
M  END
>  <ID>
266
$$$$
Structure_267
Score 	 10.0, smilesprid 	smiles	 smilestrue 	smiles	 similartanimoto 	0	 similardice 	0

   12   11  0  0  0  0            999 V3000
M  V30 BEGIN CTAB
M  V30 COUNTS 12 11 0 0 0
M  V30 BEGIN ATOM
M  V30 1 C -1.7578 -0.7812 0.0000 0
M  V30 2 C -0.5859 0.1953 0.0000 0
M  V30 3 C 1.7578 0.1953 0.0000 0
M  V30 4 N -0.7812 1.3672 0.0000 0
M  V30 5 N 0.3906 -0.5859 0.0000 0
M  V30 6 N 2.7344 -0.5859 0.0000 0
M  V30 7 O -3.1250 -0.3906 0.0000 0
M  V30 8 H -1.5625 -1.9531 0.0000 0
M  V30 9 H -1.5625 1.7578 0.0000 0
M  V30 10 H 0.5859 -1.7578 0.0000 0
M  V30 11 H 1.7578 1.1719 0.0000 0
M  V30 12 H 3.5156 0.1953 0.0000 0
M  V30 END ATOM
M  V30 BEGIN BOND
M  V30 1 3 1 2
M  V30 2 2 1 7
M  V30 3 1 1 8
M  V30 4 2 2 4
M  V30 5 3 2 5
M  V30 6 1 3 5
M  V30 7 1 3 6
M  V30 8 1 3 11
M  V30 9 1 4 9
M  V30 10 1 5 10
M  V30 11 1 6 12
M  V30 END BOND
M  V30 END CTAB
M  END
>  <ID>
267
$$$$
Structure_268
Score 	 8.0, smilesprid 	smiles	 smilestrue 	smiles	 similartanimoto 	0	 similardice 	0

   12   11  0  0  0  0            999 V3000
M  V30 BEGIN CTAB
M  V30 COUNTS 12 11 0 0 0
M  V30 BEGIN ATOM
M  V30 1 C -1.7578 -0.7812 0.0000 0
M  V30 2 C -0.5859 0.1953 0.0000 0
M  V30 3 C 1.7578 0.1953 0.0000 0
M  V30 4 N -0.7812 1.3672 0.0000 0
M  V30 5 N 0.3906 -0.5859 0.0000 0
M  V30 6 N 2.7344 -0.5859 0.0000 0
M  V30 7 O -3.1250 -0.3906 0.0000 0
M  V30 8 H -1.5625 -1.9531 0.0000 0
M  V30 9 H -1.5625 1.7578 0.0000 0
M  V30 10 H 0.5859 -1.7578 0.0000 0
M  V30 11 H 1.7578 1.1719 0.0000 0
M  V30 12 H 3.5156 0.1953 0.0000 0
M  V30 END ATOM
M  V30 BEGIN BOND
M  V30 1 1 1 2
M  V30 2 2 1 7
M  V30 3 1 1 8
M  V30 4 3 2 4
M  V30 5 3 2 5
M  V30 6 1 3 5
M  V30 7 1 3 6
M  V30 8 1 3 11
M  V30 9 1 4 9
M  V30 10 1 5 10
M  V30 11 1 6 12
M  V30 END BOND
M  V30 END CTAB
M  END
>  <ID>
268
$$$$
Structure_269
Score 	 10.0, smilesprid 	smiles	 smilestrue 	smiles	 similartanimoto 	0	 similardice 	0

   12   11  0  0  0  0            999 V3000
M  V30 BEGIN CTAB
M  V30 COUNTS 12 11 0 0 0
M  V30 BEGIN ATOM
M  V30 1 C -1.7578 -0.7812 0.0000 0
M  V30 2 C -0.5859 0.1953 0.0000 0
M  V30 3 C 1.7578 0.1953 0.0000 0
M  V30 4 N -0.7812 1.3672 0.0000 0
M  V30 5 N 0.3906 -0.5859 0.0000 0
M  V30 6 N 2.7344 -0.5859 0.0000 0
M  V30 7 O -3.1250 -0.3906 0.0000 0
M  V30 8 H -1.5625 -1.9531 0.0000 0
M  V30 9 H -1.5625 1.7578 0.0000 0
M  V30 10 H 0.5859 -1.7578 0.0000 0
M  V30 11 H 1.7578 1.1719 0.0000 0
M  V30 12 H 3.5156 0.1953 0.0000 0
M  V30 END ATOM
M  V30 BEGIN BOND
M  V30 1 2 1 2
M  V30 2 2 1 7
M  V30 3 1 1 8
M  V30 4 3 2 4
M  V30 5 3 2 5
M  V30 6 1 3 5
M  V30 7 1 3 6
M  V30 8 1 3 11
M  V30 9 1 4 9
M  V30 10 1 5 10
M  V30 11 1 6 12
M  V30 END BOND
M  V30 END CTAB
M  END
>  <ID>
269
$$$$
Structure_270
Score 	 12.0, smilesprid 	smiles	 smilestrue 	smiles	 similartanimoto 	0	 similardice 	0

   12   11  0  0  0  0            999 V3000
M  V30 BEGIN CTAB
M  V30 COUNTS 12 11 0 0 0
M  V30 BEGIN ATOM
M  V30 1 C -1.7578 -0.7812 0.0000 0
M  V30 2 C -0.5859 0.1953 0.0000 0
M  V30 3 C 1.7578 0.1953 0.0000 0
M  V30 4 N -0.7812 1.3672 0.0000 0
M  V30 5 N 0.3906 -0.5859 0.0000 0
M  V30 6 N 2.7344 -0.5859 0.0000 0
M  V30 7 O -3.1250 -0.3906 0.0000 0
M  V30 8 H -1.5625 -1.9531 0.0000 0
M  V30 9 H -1.5625 1.7578 0.0000 0
M  V30 10 H 0.5859 -1.7578 0.0000 0
M  V30 11 H 1.7578 1.1719 0.0000 0
M  V30 12 H 3.5156 0.1953 0.0000 0
M  V30 END ATOM
M  V30 BEGIN BOND
M  V30 1 3 1 2
M  V30 2 2 1 7
M  V30 3 1 1 8
M  V30 4 3 2 4
M  V30 5 3 2 5
M  V30 6 1 3 5
M  V30 7 1 3 6
M  V30 8 1 3 11
M  V30 9 1 4 9
M  V30 10 1 5 10
M  V30 11 1 6 12
M  V30 END BOND
M  V30 END CTAB
M  END
>  <ID>
270
$$$$
Structure_271
Score 	 4.0, smilesprid 	smiles	 smilestrue 	smiles	 similartanimoto 	0	 similardice 	0

   12   11  0  0  0  0            999 V3000
M  V30 BEGIN CTAB
M  V30 COUNTS 12 11 0 0 0
M  V30 BEGIN ATOM
M  V30 1 C -1.7578 -0.7812 0.0000 0
M  V30 2 C -0.5859 0.1953 0.0000 0
M  V30 3 C 1.7578 0.1953 0.0000 0
M  V30 4 N -0.7812 1.3672 0.0000 0
M  V30 5 N 0.3906 -0.5859 0.0000 0
M  V30 6 N 2.7344 -0.5859 0.0000 0
M  V30 7 O -3.1250 -0.3906 0.0000 0
M  V30 8 H -1.5625 -1.9531 0.0000 0
M  V30 9 H -1.5625 1.7578 0.0000 0
M  V30 10 H 0.5859 -1.7578 0.0000 0
M  V30 11 H 1.7578 1.1719 0.0000 0
M  V30 12 H 3.5156 0.1953 0.0000 0
M  V30 END ATOM
M  V30 BEGIN BOND
M  V30 1 1 1 2
M  V30 2 2 1 7
M  V30 3 1 1 8
M  V30 4 1 2 4
M  V30 5 1 2 5
M  V30 6 2 3 5
M  V30 7 1 3 6
M  V30 8 1 3 11
M  V30 9 1 4 9
M  V30 10 1 5 10
M  V30 11 1 6 12
M  V30 END BOND
M  V30 END CTAB
M  END
>  <ID>
271
$$$$
Structure_272
Score 	 4.0, smilesprid 	smiles	 smilestrue 	smiles	 similartanimoto 	0	 similardice 	0

   12   11  0  0  0  0            999 V3000
M  V30 BEGIN CTAB
M  V30 COUNTS 12 11 0 0 0
M  V30 BEGIN ATOM
M  V30 1 C -1.7578 -0.7812 0.0000 0
M  V30 2 C -0.5859 0.1953 0.0000 0
M  V30 3 C 1.7578 0.1953 0.0000 0
M  V30 4 N -0.7812 1.3672 0.0000 0
M  V30 5 N 0.3906 -0.5859 0.0000 0
M  V30 6 N 2.7344 -0.5859 0.0000 0
M  V30 7 O -3.1250 -0.3906 0.0000 0
M  V30 8 H -1.5625 -1.9531 0.0000 0
M  V30 9 H -1.5625 1.7578 0.0000 0
M  V30 10 H 0.5859 -1.7578 0.0000 0
M  V30 11 H 1.7578 1.1719 0.0000 0
M  V30 12 H 3.5156 0.1953 0.0000 0
M  V30 END ATOM
M  V30 BEGIN BOND
M  V30 1 2 1 2
M  V30 2 2 1 7
M  V30 3 1 1 8
M  V30 4 1 2 4
M  V30 5 1 2 5
M  V30 6 2 3 5
M  V30 7 1 3 6
M  V30 8 1 3 11
M  V30 9 1 4 9
M  V30 10 1 5 10
M  V30 11 1 6 12
M  V30 END BOND
M  V30 END CTAB
M  END
>  <ID>
272
$$$$
Structure_273
Score 	 6.0, smilesprid 	smiles	 smilestrue 	smiles	 similartanimoto 	0	 similardice 	0

   12   11  0  0  0  0            999 V3000
M  V30 BEGIN CTAB
M  V30 COUNTS 12 11 0 0 0
M  V30 BEGIN ATOM
M  V30 1 C -1.7578 -0.7812 0.0000 0
M  V30 2 C -0.5859 0.1953 0.0000 0
M  V30 3 C 1.7578 0.1953 0.0000 0
M  V30 4 N -0.7812 1.3672 0.0000 0
M  V30 5 N 0.3906 -0.5859 0.0000 0
M  V30 6 N 2.7344 -0.5859 0.0000 0
M  V30 7 O -3.1250 -0.3906 0.0000 0
M  V30 8 H -1.5625 -1.9531 0.0000 0
M  V30 9 H -1.5625 1.7578 0.0000 0
M  V30 10 H 0.5859 -1.7578 0.0000 0
M  V30 11 H 1.7578 1.1719 0.0000 0
M  V30 12 H 3.5156 0.1953 0.0000 0
M  V30 END ATOM
M  V30 BEGIN BOND
M  V30 1 3 1 2
M  V30 2 2 1 7
M  V30 3 1 1 8
M  V30 4 1 2 4
M  V30 5 1 2 5
M  V30 6 2 3 5
M  V30 7 1 3 6
M  V30 8 1 3 11
M  V30 9 1 4 9
M  V30 10 1 5 10
M  V30 11 1 6 12
M  V30 END BOND
M  V30 END CTAB
M  END
>  <ID>
273
$$$$
Structure_274
Score 	 2.0, smilesprid 	smiles	 smilestrue 	smiles	 similartanimoto 	0	 similardice 	0

   12   11  0  0  0  0            999 V3000
M  V30 BEGIN CTAB
M  V30 COUNTS 12 11 0 0 0
M  V30 BEGIN ATOM
M  V30 1 C -1.7578 -0.7812 0.0000 0
M  V30 2 C -0.5859 0.1953 0.0000 0
M  V30 3 C 1.7578 0.1953 0.0000 0
M  V30 4 N -0.7812 1.3672 0.0000 0
M  V30 5 N 0.3906 -0.5859 0.0000 0
M  V30 6 N 2.7344 -0.5859 0.0000 0
M  V30 7 O -3.1250 -0.3906 0.0000 0
M  V30 8 H -1.5625 -1.9531 0.0000 0
M  V30 9 H -1.5625 1.7578 0.0000 0
M  V30 10 H 0.5859 -1.7578 0.0000 0
M  V30 11 H 1.7578 1.1719 0.0000 0
M  V30 12 H 3.5156 0.1953 0.0000 0
M  V30 END ATOM
M  V30 BEGIN BOND
M  V30 1 1 1 2
M  V30 2 2 1 7
M  V30 3 1 1 8
M  V30 4 2 2 4
M  V30 5 1 2 5
M  V30 6 2 3 5
M  V30 7 1 3 6
M  V30 8 1 3 11
M  V30 9 1 4 9
M  V30 10 1 5 10
M  V30 11 1 6 12
M  V30 END BOND
M  V30 END CTAB
M  END
>  <ID>
274
$$$$
Structure_275
Score 	 4.0, smilesprid 	smiles	 smilestrue 	smiles	 similartanimoto 	0	 similardice 	0

   12   11  0  0  0  0            999 V3000
M  V30 BEGIN CTAB
M  V30 COUNTS 12 11 0 0 0
M  V30 BEGIN ATOM
M  V30 1 C -1.7578 -0.7812 0.0000 0
M  V30 2 C -0.5859 0.1953 0.0000 0
M  V30 3 C 1.7578 0.1953 0.0000 0
M  V30 4 N -0.7812 1.3672 0.0000 0
M  V30 5 N 0.3906 -0.5859 0.0000 0
M  V30 6 N 2.7344 -0.5859 0.0000 0
M  V30 7 O -3.1250 -0.3906 0.0000 0
M  V30 8 H -1.5625 -1.9531 0.0000 0
M  V30 9 H -1.5625 1.7578 0.0000 0
M  V30 10 H 0.5859 -1.7578 0.0000 0
M  V30 11 H 1.7578 1.1719 0.0000 0
M  V30 12 H 3.5156 0.1953 0.0000 0
M  V30 END ATOM
M  V30 BEGIN BOND
M  V30 1 2 1 2
M  V30 2 2 1 7
M  V30 3 1 1 8
M  V30 4 2 2 4
M  V30 5 1 2 5
M  V30 6 2 3 5
M  V30 7 1 3 6
M  V30 8 1 3 11
M  V30 9 1 4 9
M  V30 10 1 5 10
M  V30 11 1 6 12
M  V30 END BOND
M  V30 END CTAB
M  END
>  <ID>
275
$$$$
Structure_276
Score 	 6.0, smilesprid 	smiles	 smilestrue 	smiles	 similartanimoto 	0	 similardice 	0

   12   11  0  0  0  0            999 V3000
M  V30 BEGIN CTAB
M  V30 COUNTS 12 11 0 0 0
M  V30 BEGIN ATOM
M  V30 1 C -1.7578 -0.7812 0.0000 0
M  V30 2 C -0.5859 0.1953 0.0000 0
M  V30 3 C 1.7578 0.1953 0.0000 0
M  V30 4 N -0.7812 1.3672 0.0000 0
M  V30 5 N 0.3906 -0.5859 0.0000 0
M  V30 6 N 2.7344 -0.5859 0.0000 0
M  V30 7 O -3.1250 -0.3906 0.0000 0
M  V30 8 H -1.5625 -1.9531 0.0000 0
M  V30 9 H -1.5625 1.7578 0.0000 0
M  V30 10 H 0.5859 -1.7578 0.0000 0
M  V30 11 H 1.7578 1.1719 0.0000 0
M  V30 12 H 3.5156 0.1953 0.0000 0
M  V30 END ATOM
M  V30 BEGIN BOND
M  V30 1 3 1 2
M  V30 2 2 1 7
M  V30 3 1 1 8
M  V30 4 2 2 4
M  V30 5 1 2 5
M  V30 6 2 3 5
M  V30 7 1 3 6
M  V30 8 1 3 11
M  V30 9 1 4 9
M  V30 10 1 5 10
M  V30 11 1 6 12
M  V30 END BOND
M  V30 END CTAB
M  END
>  <ID>
276
$$$$
Structure_277
Score 	 4.0, smilesprid 	smiles	 smilestrue 	smiles	 similartanimoto 	0	 similardice 	0

   12   11  0  0  0  0            999 V3000
M  V30 BEGIN CTAB
M  V30 COUNTS 12 11 0 0 0
M  V30 BEGIN ATOM
M  V30 1 C -1.7578 -0.7812 0.0000 0
M  V30 2 C -0.5859 0.1953 0.0000 0
M  V30 3 C 1.7578 0.1953 0.0000 0
M  V30 4 N -0.7812 1.3672 0.0000 0
M  V30 5 N 0.3906 -0.5859 0.0000 0
M  V30 6 N 2.7344 -0.5859 0.0000 0
M  V30 7 O -3.1250 -0.3906 0.0000 0
M  V30 8 H -1.5625 -1.9531 0.0000 0
M  V30 9 H -1.5625 1.7578 0.0000 0
M  V30 10 H 0.5859 -1.7578 0.0000 0
M  V30 11 H 1.7578 1.1719 0.0000 0
M  V30 12 H 3.5156 0.1953 0.0000 0
M  V30 END ATOM
M  V30 BEGIN BOND
M  V30 1 1 1 2
M  V30 2 2 1 7
M  V30 3 1 1 8
M  V30 4 3 2 4
M  V30 5 1 2 5
M  V30 6 2 3 5
M  V30 7 1 3 6
M  V30 8 1 3 11
M  V30 9 1 4 9
M  V30 10 1 5 10
M  V30 11 1 6 12
M  V30 END BOND
M  V30 END CTAB
M  END
>  <ID>
277
$$$$
Structure_278
Score 	 6.0, smilesprid 	smiles	 smilestrue 	smiles	 similartanimoto 	0	 similardice 	0

   12   11  0  0  0  0            999 V3000
M  V30 BEGIN CTAB
M  V30 COUNTS 12 11 0 0 0
M  V30 BEGIN ATOM
M  V30 1 C -1.7578 -0.7812 0.0000 0
M  V30 2 C -0.5859 0.1953 0.0000 0
M  V30 3 C 1.7578 0.1953 0.0000 0
M  V30 4 N -0.7812 1.3672 0.0000 0
M  V30 5 N 0.3906 -0.5859 0.0000 0
M  V30 6 N 2.7344 -0.5859 0.0000 0
M  V30 7 O -3.1250 -0.3906 0.0000 0
M  V30 8 H -1.5625 -1.9531 0.0000 0
M  V30 9 H -1.5625 1.7578 0.0000 0
M  V30 10 H 0.5859 -1.7578 0.0000 0
M  V30 11 H 1.7578 1.1719 0.0000 0
M  V30 12 H 3.5156 0.1953 0.0000 0
M  V30 END ATOM
M  V30 BEGIN BOND
M  V30 1 2 1 2
M  V30 2 2 1 7
M  V30 3 1 1 8
M  V30 4 3 2 4
M  V30 5 1 2 5
M  V30 6 2 3 5
M  V30 7 1 3 6
M  V30 8 1 3 11
M  V30 9 1 4 9
M  V30 10 1 5 10
M  V30 11 1 6 12
M  V30 END BOND
M  V30 END CTAB
M  END
>  <ID>
278
$$$$
Structure_279
Score 	 8.0, smilesprid 	smiles	 smilestrue 	smiles	 similartanimoto 	0	 similardice 	0

   12   11  0  0  0  0            999 V3000
M  V30 BEGIN CTAB
M  V30 COUNTS 12 11 0 0 0
M  V30 BEGIN ATOM
M  V30 1 C -1.7578 -0.7812 0.0000 0
M  V30 2 C -0.5859 0.1953 0.0000 0
M  V30 3 C 1.7578 0.1953 0.0000 0
M  V30 4 N -0.7812 1.3672 0.0000 0
M  V30 5 N 0.3906 -0.5859 0.0000 0
M  V30 6 N 2.7344 -0.5859 0.0000 0
M  V30 7 O -3.1250 -0.3906 0.0000 0
M  V30 8 H -1.5625 -1.9531 0.0000 0
M  V30 9 H -1.5625 1.7578 0.0000 0
M  V30 10 H 0.5859 -1.7578 0.0000 0
M  V30 11 H 1.7578 1.1719 0.0000 0
M  V30 12 H 3.5156 0.1953 0.0000 0
M  V30 END ATOM
M  V30 BEGIN BOND
M  V30 1 3 1 2
M  V30 2 2 1 7
M  V30 3 1 1 8
M  V30 4 3 2 4
M  V30 5 1 2 5
M  V30 6 2 3 5
M  V30 7 1 3 6
M  V30 8 1 3 11
M  V30 9 1 4 9
M  V30 10 1 5 10
M  V30 11 1 6 12
M  V30 END BOND
M  V30 END CTAB
M  END
>  <ID>
279
$$$$
Structure_280
Score 	 4.0, smilesprid 	smiles	 smilestrue 	smiles	 similartanimoto 	0	 similardice 	0

   12   11  0  0  0  0            999 V3000
M  V30 BEGIN CTAB
M  V30 COUNTS 12 11 0 0 0
M  V30 BEGIN ATOM
M  V30 1 C -1.7578 -0.7812 0.0000 0
M  V30 2 C -0.5859 0.1953 0.0000 0
M  V30 3 C 1.7578 0.1953 0.0000 0
M  V30 4 N -0.7812 1.3672 0.0000 0
M  V30 5 N 0.3906 -0.5859 0.0000 0
M  V30 6 N 2.7344 -0.5859 0.0000 0
M  V30 7 O -3.1250 -0.3906 0.0000 0
M  V30 8 H -1.5625 -1.9531 0.0000 0
M  V30 9 H -1.5625 1.7578 0.0000 0
M  V30 10 H 0.5859 -1.7578 0.0000 0
M  V30 11 H 1.7578 1.1719 0.0000 0
M  V30 12 H 3.5156 0.1953 0.0000 0
M  V30 END ATOM
M  V30 BEGIN BOND
M  V30 1 1 1 2
M  V30 2 2 1 7
M  V30 3 1 1 8
M  V30 4 1 2 4
M  V30 5 2 2 5
M  V30 6 2 3 5
M  V30 7 1 3 6
M  V30 8 1 3 11
M  V30 9 1 4 9
M  V30 10 1 5 10
M  V30 11 1 6 12
M  V30 END BOND
M  V30 END CTAB
M  END
>  <ID>
280
$$$$
Structure_281
Score 	 6.0, smilesprid 	smiles	 smilestrue 	smiles	 similartanimoto 	0	 similardice 	0

   12   11  0  0  0  0            999 V3000
M  V30 BEGIN CTAB
M  V30 COUNTS 12 11 0 0 0
M  V30 BEGIN ATOM
M  V30 1 C -1.7578 -0.7812 0.0000 0
M  V30 2 C -0.5859 0.1953 0.0000 0
M  V30 3 C 1.7578 0.1953 0.0000 0
M  V30 4 N -0.7812 1.3672 0.0000 0
M  V30 5 N 0.3906 -0.5859 0.0000 0
M  V30 6 N 2.7344 -0.5859 0.0000 0
M  V30 7 O -3.1250 -0.3906 0.0000 0
M  V30 8 H -1.5625 -1.9531 0.0000 0
M  V30 9 H -1.5625 1.7578 0.0000 0
M  V30 10 H 0.5859 -1.7578 0.0000 0
M  V30 11 H 1.7578 1.1719 0.0000 0
M  V30 12 H 3.5156 0.1953 0.0000 0
M  V30 END ATOM
M  V30 BEGIN BOND
M  V30 1 2 1 2
M  V30 2 2 1 7
M  V30 3 1 1 8
M  V30 4 1 2 4
M  V30 5 2 2 5
M  V30 6 2 3 5
M  V30 7 1 3 6
M  V30 8 1 3 11
M  V30 9 1 4 9
M  V30 10 1 5 10
M  V30 11 1 6 12
M  V30 END BOND
M  V30 END CTAB
M  END
>  <ID>
281
$$$$
Structure_282
Score 	 8.0, smilesprid 	smiles	 smilestrue 	smiles	 similartanimoto 	0	 similardice 	0

   12   11  0  0  0  0            999 V3000
M  V30 BEGIN CTAB
M  V30 COUNTS 12 11 0 0 0
M  V30 BEGIN ATOM
M  V30 1 C -1.7578 -0.7812 0.0000 0
M  V30 2 C -0.5859 0.1953 0.0000 0
M  V30 3 C 1.7578 0.1953 0.0000 0
M  V30 4 N -0.7812 1.3672 0.0000 0
M  V30 5 N 0.3906 -0.5859 0.0000 0
M  V30 6 N 2.7344 -0.5859 0.0000 0
M  V30 7 O -3.1250 -0.3906 0.0000 0
M  V30 8 H -1.5625 -1.9531 0.0000 0
M  V30 9 H -1.5625 1.7578 0.0000 0
M  V30 10 H 0.5859 -1.7578 0.0000 0
M  V30 11 H 1.7578 1.1719 0.0000 0
M  V30 12 H 3.5156 0.1953 0.0000 0
M  V30 END ATOM
M  V30 BEGIN BOND
M  V30 1 3 1 2
M  V30 2 2 1 7
M  V30 3 1 1 8
M  V30 4 1 2 4
M  V30 5 2 2 5
M  V30 6 2 3 5
M  V30 7 1 3 6
M  V30 8 1 3 11
M  V30 9 1 4 9
M  V30 10 1 5 10
M  V30 11 1 6 12
M  V30 END BOND
M  V30 END CTAB
M  END
>  <ID>
282
$$$$
Structure_283
Score 	 4.0, smilesprid 	smiles	 smilestrue 	smiles	 similartanimoto 	0	 similardice 	0

   12   11  0  0  0  0            999 V3000
M  V30 BEGIN CTAB
M  V30 COUNTS 12 11 0 0 0
M  V30 BEGIN ATOM
M  V30 1 C -1.7578 -0.7812 0.0000 0
M  V30 2 C -0.5859 0.1953 0.0000 0
M  V30 3 C 1.7578 0.1953 0.0000 0
M  V30 4 N -0.7812 1.3672 0.0000 0
M  V30 5 N 0.3906 -0.5859 0.0000 0
M  V30 6 N 2.7344 -0.5859 0.0000 0
M  V30 7 O -3.1250 -0.3906 0.0000 0
M  V30 8 H -1.5625 -1.9531 0.0000 0
M  V30 9 H -1.5625 1.7578 0.0000 0
M  V30 10 H 0.5859 -1.7578 0.0000 0
M  V30 11 H 1.7578 1.1719 0.0000 0
M  V30 12 H 3.5156 0.1953 0.0000 0
M  V30 END ATOM
M  V30 BEGIN BOND
M  V30 1 1 1 2
M  V30 2 2 1 7
M  V30 3 1 1 8
M  V30 4 2 2 4
M  V30 5 2 2 5
M  V30 6 2 3 5
M  V30 7 1 3 6
M  V30 8 1 3 11
M  V30 9 1 4 9
M  V30 10 1 5 10
M  V30 11 1 6 12
M  V30 END BOND
M  V30 END CTAB
M  END
>  <ID>
283
$$$$
Structure_284
Score 	 6.0, smilesprid 	smiles	 smilestrue 	smiles	 similartanimoto 	0	 similardice 	0

   12   11  0  0  0  0            999 V3000
M  V30 BEGIN CTAB
M  V30 COUNTS 12 11 0 0 0
M  V30 BEGIN ATOM
M  V30 1 C -1.7578 -0.7812 0.0000 0
M  V30 2 C -0.5859 0.1953 0.0000 0
M  V30 3 C 1.7578 0.1953 0.0000 0
M  V30 4 N -0.7812 1.3672 0.0000 0
M  V30 5 N 0.3906 -0.5859 0.0000 0
M  V30 6 N 2.7344 -0.5859 0.0000 0
M  V30 7 O -3.1250 -0.3906 0.0000 0
M  V30 8 H -1.5625 -1.9531 0.0000 0
M  V30 9 H -1.5625 1.7578 0.0000 0
M  V30 10 H 0.5859 -1.7578 0.0000 0
M  V30 11 H 1.7578 1.1719 0.0000 0
M  V30 12 H 3.5156 0.1953 0.0000 0
M  V30 END ATOM
M  V30 BEGIN BOND
M  V30 1 2 1 2
M  V30 2 2 1 7
M  V30 3 1 1 8
M  V30 4 2 2 4
M  V30 5 2 2 5
M  V30 6 2 3 5
M  V30 7 1 3 6
M  V30 8 1 3 11
M  V30 9 1 4 9
M  V30 10 1 5 10
M  V30 11 1 6 12
M  V30 END BOND
M  V30 END CTAB
M  END
>  <ID>
284
$$$$
Structure_285
Score 	 8.0, smilesprid 	smiles	 smilestrue 	smiles	 similartanimoto 	0	 similardice 	0

   12   11  0  0  0  0            999 V3000
M  V30 BEGIN CTAB
M  V30 COUNTS 12 11 0 0 0
M  V30 BEGIN ATOM
M  V30 1 C -1.7578 -0.7812 0.0000 0
M  V30 2 C -0.5859 0.1953 0.0000 0
M  V30 3 C 1.7578 0.1953 0.0000 0
M  V30 4 N -0.7812 1.3672 0.0000 0
M  V30 5 N 0.3906 -0.5859 0.0000 0
M  V30 6 N 2.7344 -0.5859 0.0000 0
M  V30 7 O -3.1250 -0.3906 0.0000 0
M  V30 8 H -1.5625 -1.9531 0.0000 0
M  V30 9 H -1.5625 1.7578 0.0000 0
M  V30 10 H 0.5859 -1.7578 0.0000 0
M  V30 11 H 1.7578 1.1719 0.0000 0
M  V30 12 H 3.5156 0.1953 0.0000 0
M  V30 END ATOM
M  V30 BEGIN BOND
M  V30 1 3 1 2
M  V30 2 2 1 7
M  V30 3 1 1 8
M  V30 4 2 2 4
M  V30 5 2 2 5
M  V30 6 2 3 5
M  V30 7 1 3 6
M  V30 8 1 3 11
M  V30 9 1 4 9
M  V30 10 1 5 10
M  V30 11 1 6 12
M  V30 END BOND
M  V30 END CTAB
M  END
>  <ID>
285
$$$$
Structure_286
Score 	 6.0, smilesprid 	smiles	 smilestrue 	smiles	 similartanimoto 	0	 similardice 	0

   12   11  0  0  0  0            999 V3000
M  V30 BEGIN CTAB
M  V30 COUNTS 12 11 0 0 0
M  V30 BEGIN ATOM
M  V30 1 C -1.7578 -0.7812 0.0000 0
M  V30 2 C -0.5859 0.1953 0.0000 0
M  V30 3 C 1.7578 0.1953 0.0000 0
M  V30 4 N -0.7812 1.3672 0.0000 0
M  V30 5 N 0.3906 -0.5859 0.0000 0
M  V30 6 N 2.7344 -0.5859 0.0000 0
M  V30 7 O -3.1250 -0.3906 0.0000 0
M  V30 8 H -1.5625 -1.9531 0.0000 0
M  V30 9 H -1.5625 1.7578 0.0000 0
M  V30 10 H 0.5859 -1.7578 0.0000 0
M  V30 11 H 1.7578 1.1719 0.0000 0
M  V30 12 H 3.5156 0.1953 0.0000 0
M  V30 END ATOM
M  V30 BEGIN BOND
M  V30 1 1 1 2
M  V30 2 2 1 7
M  V30 3 1 1 8
M  V30 4 3 2 4
M  V30 5 2 2 5
M  V30 6 2 3 5
M  V30 7 1 3 6
M  V30 8 1 3 11
M  V30 9 1 4 9
M  V30 10 1 5 10
M  V30 11 1 6 12
M  V30 END BOND
M  V30 END CTAB
M  END
>  <ID>
286
$$$$
Structure_287
Score 	 8.0, smilesprid 	smiles	 smilestrue 	smiles	 similartanimoto 	0	 similardice 	0

   12   11  0  0  0  0            999 V3000
M  V30 BEGIN CTAB
M  V30 COUNTS 12 11 0 0 0
M  V30 BEGIN ATOM
M  V30 1 C -1.7578 -0.7812 0.0000 0
M  V30 2 C -0.5859 0.1953 0.0000 0
M  V30 3 C 1.7578 0.1953 0.0000 0
M  V30 4 N -0.7812 1.3672 0.0000 0
M  V30 5 N 0.3906 -0.5859 0.0000 0
M  V30 6 N 2.7344 -0.5859 0.0000 0
M  V30 7 O -3.1250 -0.3906 0.0000 0
M  V30 8 H -1.5625 -1.9531 0.0000 0
M  V30 9 H -1.5625 1.7578 0.0000 0
M  V30 10 H 0.5859 -1.7578 0.0000 0
M  V30 11 H 1.7578 1.1719 0.0000 0
M  V30 12 H 3.5156 0.1953 0.0000 0
M  V30 END ATOM
M  V30 BEGIN BOND
M  V30 1 2 1 2
M  V30 2 2 1 7
M  V30 3 1 1 8
M  V30 4 3 2 4
M  V30 5 2 2 5
M  V30 6 2 3 5
M  V30 7 1 3 6
M  V30 8 1 3 11
M  V30 9 1 4 9
M  V30 10 1 5 10
M  V30 11 1 6 12
M  V30 END BOND
M  V30 END CTAB
M  END
>  <ID>
287
$$$$
Structure_288
Score 	 10.0, smilesprid 	smiles	 smilestrue 	smiles	 similartanimoto 	0	 similardice 	0

   12   11  0  0  0  0            999 V3000
M  V30 BEGIN CTAB
M  V30 COUNTS 12 11 0 0 0
M  V30 BEGIN ATOM
M  V30 1 C -1.7578 -0.7812 0.0000 0
M  V30 2 C -0.5859 0.1953 0.0000 0
M  V30 3 C 1.7578 0.1953 0.0000 0
M  V30 4 N -0.7812 1.3672 0.0000 0
M  V30 5 N 0.3906 -0.5859 0.0000 0
M  V30 6 N 2.7344 -0.5859 0.0000 0
M  V30 7 O -3.1250 -0.3906 0.0000 0
M  V30 8 H -1.5625 -1.9531 0.0000 0
M  V30 9 H -1.5625 1.7578 0.0000 0
M  V30 10 H 0.5859 -1.7578 0.0000 0
M  V30 11 H 1.7578 1.1719 0.0000 0
M  V30 12 H 3.5156 0.1953 0.0000 0
M  V30 END ATOM
M  V30 BEGIN BOND
M  V30 1 3 1 2
M  V30 2 2 1 7
M  V30 3 1 1 8
M  V30 4 3 2 4
M  V30 5 2 2 5
M  V30 6 2 3 5
M  V30 7 1 3 6
M  V30 8 1 3 11
M  V30 9 1 4 9
M  V30 10 1 5 10
M  V30 11 1 6 12
M  V30 END BOND
M  V30 END CTAB
M  END
>  <ID>
288
$$$$
Structure_289
Score 	 6.0, smilesprid 	smiles	 smilestrue 	smiles	 similartanimoto 	0	 similardice 	0

   12   11  0  0  0  0            999 V3000
M  V30 BEGIN CTAB
M  V30 COUNTS 12 11 0 0 0
M  V30 BEGIN ATOM
M  V30 1 C -1.7578 -0.7812 0.0000 0
M  V30 2 C -0.5859 0.1953 0.0000 0
M  V30 3 C 1.7578 0.1953 0.0000 0
M  V30 4 N -0.7812 1.3672 0.0000 0
M  V30 5 N 0.3906 -0.5859 0.0000 0
M  V30 6 N 2.7344 -0.5859 0.0000 0
M  V30 7 O -3.1250 -0.3906 0.0000 0
M  V30 8 H -1.5625 -1.9531 0.0000 0
M  V30 9 H -1.5625 1.7578 0.0000 0
M  V30 10 H 0.5859 -1.7578 0.0000 0
M  V30 11 H 1.7578 1.1719 0.0000 0
M  V30 12 H 3.5156 0.1953 0.0000 0
M  V30 END ATOM
M  V30 BEGIN BOND
M  V30 1 1 1 2
M  V30 2 2 1 7
M  V30 3 1 1 8
M  V30 4 1 2 4
M  V30 5 3 2 5
M  V30 6 2 3 5
M  V30 7 1 3 6
M  V30 8 1 3 11
M  V30 9 1 4 9
M  V30 10 1 5 10
M  V30 11 1 6 12
M  V30 END BOND
M  V30 END CTAB
M  END
>  <ID>
289
$$$$
Structure_290
Score 	 8.0, smilesprid 	smiles	 smilestrue 	smiles	 similartanimoto 	0	 similardice 	0

   12   11  0  0  0  0            999 V3000
M  V30 BEGIN CTAB
M  V30 COUNTS 12 11 0 0 0
M  V30 BEGIN ATOM
M  V30 1 C -1.7578 -0.7812 0.0000 0
M  V30 2 C -0.5859 0.1953 0.0000 0
M  V30 3 C 1.7578 0.1953 0.0000 0
M  V30 4 N -0.7812 1.3672 0.0000 0
M  V30 5 N 0.3906 -0.5859 0.0000 0
M  V30 6 N 2.7344 -0.5859 0.0000 0
M  V30 7 O -3.1250 -0.3906 0.0000 0
M  V30 8 H -1.5625 -1.9531 0.0000 0
M  V30 9 H -1.5625 1.7578 0.0000 0
M  V30 10 H 0.5859 -1.7578 0.0000 0
M  V30 11 H 1.7578 1.1719 0.0000 0
M  V30 12 H 3.5156 0.1953 0.0000 0
M  V30 END ATOM
M  V30 BEGIN BOND
M  V30 1 2 1 2
M  V30 2 2 1 7
M  V30 3 1 1 8
M  V30 4 1 2 4
M  V30 5 3 2 5
M  V30 6 2 3 5
M  V30 7 1 3 6
M  V30 8 1 3 11
M  V30 9 1 4 9
M  V30 10 1 5 10
M  V30 11 1 6 12
M  V30 END BOND
M  V30 END CTAB
M  END
>  <ID>
290
$$$$
Structure_291
Score 	 10.0, smilesprid 	smiles	 smilestrue 	smiles	 similartanimoto 	0	 similardice 	0

   12   11  0  0  0  0            999 V3000
M  V30 BEGIN CTAB
M  V30 COUNTS 12 11 0 0 0
M  V30 BEGIN ATOM
M  V30 1 C -1.7578 -0.7812 0.0000 0
M  V30 2 C -0.5859 0.1953 0.0000 0
M  V30 3 C 1.7578 0.1953 0.0000 0
M  V30 4 N -0.7812 1.3672 0.0000 0
M  V30 5 N 0.3906 -0.5859 0.0000 0
M  V30 6 N 2.7344 -0.5859 0.0000 0
M  V30 7 O -3.1250 -0.3906 0.0000 0
M  V30 8 H -1.5625 -1.9531 0.0000 0
M  V30 9 H -1.5625 1.7578 0.0000 0
M  V30 10 H 0.5859 -1.7578 0.0000 0
M  V30 11 H 1.7578 1.1719 0.0000 0
M  V30 12 H 3.5156 0.1953 0.0000 0
M  V30 END ATOM
M  V30 BEGIN BOND
M  V30 1 3 1 2
M  V30 2 2 1 7
M  V30 3 1 1 8
M  V30 4 1 2 4
M  V30 5 3 2 5
M  V30 6 2 3 5
M  V30 7 1 3 6
M  V30 8 1 3 11
M  V30 9 1 4 9
M  V30 10 1 5 10
M  V30 11 1 6 12
M  V30 END BOND
M  V30 END CTAB
M  END
>  <ID>
291
$$$$
Structure_292
Score 	 6.0, smilesprid 	smiles	 smilestrue 	smiles	 similartanimoto 	0	 similardice 	0

   12   11  0  0  0  0            999 V3000
M  V30 BEGIN CTAB
M  V30 COUNTS 12 11 0 0 0
M  V30 BEGIN ATOM
M  V30 1 C -1.7578 -0.7812 0.0000 0
M  V30 2 C -0.5859 0.1953 0.0000 0
M  V30 3 C 1.7578 0.1953 0.0000 0
M  V30 4 N -0.7812 1.3672 0.0000 0
M  V30 5 N 0.3906 -0.5859 0.0000 0
M  V30 6 N 2.7344 -0.5859 0.0000 0
M  V30 7 O -3.1250 -0.3906 0.0000 0
M  V30 8 H -1.5625 -1.9531 0.0000 0
M  V30 9 H -1.5625 1.7578 0.0000 0
M  V30 10 H 0.5859 -1.7578 0.0000 0
M  V30 11 H 1.7578 1.1719 0.0000 0
M  V30 12 H 3.5156 0.1953 0.0000 0
M  V30 END ATOM
M  V30 BEGIN BOND
M  V30 1 1 1 2
M  V30 2 2 1 7
M  V30 3 1 1 8
M  V30 4 2 2 4
M  V30 5 3 2 5
M  V30 6 2 3 5
M  V30 7 1 3 6
M  V30 8 1 3 11
M  V30 9 1 4 9
M  V30 10 1 5 10
M  V30 11 1 6 12
M  V30 END BOND
M  V30 END CTAB
M  END
>  <ID>
292
$$$$
Structure_293
Score 	 8.0, smilesprid 	smiles	 smilestrue 	smiles	 similartanimoto 	0	 similardice 	0

   12   11  0  0  0  0            999 V3000
M  V30 BEGIN CTAB
M  V30 COUNTS 12 11 0 0 0
M  V30 BEGIN ATOM
M  V30 1 C -1.7578 -0.7812 0.0000 0
M  V30 2 C -0.5859 0.1953 0.0000 0
M  V30 3 C 1.7578 0.1953 0.0000 0
M  V30 4 N -0.7812 1.3672 0.0000 0
M  V30 5 N 0.3906 -0.5859 0.0000 0
M  V30 6 N 2.7344 -0.5859 0.0000 0
M  V30 7 O -3.1250 -0.3906 0.0000 0
M  V30 8 H -1.5625 -1.9531 0.0000 0
M  V30 9 H -1.5625 1.7578 0.0000 0
M  V30 10 H 0.5859 -1.7578 0.0000 0
M  V30 11 H 1.7578 1.1719 0.0000 0
M  V30 12 H 3.5156 0.1953 0.0000 0
M  V30 END ATOM
M  V30 BEGIN BOND
M  V30 1 2 1 2
M  V30 2 2 1 7
M  V30 3 1 1 8
M  V30 4 2 2 4
M  V30 5 3 2 5
M  V30 6 2 3 5
M  V30 7 1 3 6
M  V30 8 1 3 11
M  V30 9 1 4 9
M  V30 10 1 5 10
M  V30 11 1 6 12
M  V30 END BOND
M  V30 END CTAB
M  END
>  <ID>
293
$$$$
Structure_294
Score 	 10.0, smilesprid 	smiles	 smilestrue 	smiles	 similartanimoto 	0	 similardice 	0

   12   11  0  0  0  0            999 V3000
M  V30 BEGIN CTAB
M  V30 COUNTS 12 11 0 0 0
M  V30 BEGIN ATOM
M  V30 1 C -1.7578 -0.7812 0.0000 0
M  V30 2 C -0.5859 0.1953 0.0000 0
M  V30 3 C 1.7578 0.1953 0.0000 0
M  V30 4 N -0.7812 1.3672 0.0000 0
M  V30 5 N 0.3906 -0.5859 0.0000 0
M  V30 6 N 2.7344 -0.5859 0.0000 0
M  V30 7 O -3.1250 -0.3906 0.0000 0
M  V30 8 H -1.5625 -1.9531 0.0000 0
M  V30 9 H -1.5625 1.7578 0.0000 0
M  V30 10 H 0.5859 -1.7578 0.0000 0
M  V30 11 H 1.7578 1.1719 0.0000 0
M  V30 12 H 3.5156 0.1953 0.0000 0
M  V30 END ATOM
M  V30 BEGIN BOND
M  V30 1 3 1 2
M  V30 2 2 1 7
M  V30 3 1 1 8
M  V30 4 2 2 4
M  V30 5 3 2 5
M  V30 6 2 3 5
M  V30 7 1 3 6
M  V30 8 1 3 11
M  V30 9 1 4 9
M  V30 10 1 5 10
M  V30 11 1 6 12
M  V30 END BOND
M  V30 END CTAB
M  END
>  <ID>
294
$$$$
Structure_295
Score 	 8.0, smilesprid 	smiles	 smilestrue 	smiles	 similartanimoto 	0	 similardice 	0

   12   11  0  0  0  0            999 V3000
M  V30 BEGIN CTAB
M  V30 COUNTS 12 11 0 0 0
M  V30 BEGIN ATOM
M  V30 1 C -1.7578 -0.7812 0.0000 0
M  V30 2 C -0.5859 0.1953 0.0000 0
M  V30 3 C 1.7578 0.1953 0.0000 0
M  V30 4 N -0.7812 1.3672 0.0000 0
M  V30 5 N 0.3906 -0.5859 0.0000 0
M  V30 6 N 2.7344 -0.5859 0.0000 0
M  V30 7 O -3.1250 -0.3906 0.0000 0
M  V30 8 H -1.5625 -1.9531 0.0000 0
M  V30 9 H -1.5625 1.7578 0.0000 0
M  V30 10 H 0.5859 -1.7578 0.0000 0
M  V30 11 H 1.7578 1.1719 0.0000 0
M  V30 12 H 3.5156 0.1953 0.0000 0
M  V30 END ATOM
M  V30 BEGIN BOND
M  V30 1 1 1 2
M  V30 2 2 1 7
M  V30 3 1 1 8
M  V30 4 3 2 4
M  V30 5 3 2 5
M  V30 6 2 3 5
M  V30 7 1 3 6
M  V30 8 1 3 11
M  V30 9 1 4 9
M  V30 10 1 5 10
M  V30 11 1 6 12
M  V30 END BOND
M  V30 END CTAB
M  END
>  <ID>
295
$$$$
Structure_296
Score 	 10.0, smilesprid 	smiles	 smilestrue 	smiles	 similartanimoto 	0	 similardice 	0

   12   11  0  0  0  0            999 V3000
M  V30 BEGIN CTAB
M  V30 COUNTS 12 11 0 0 0
M  V30 BEGIN ATOM
M  V30 1 C -1.7578 -0.7812 0.0000 0
M  V30 2 C -0.5859 0.1953 0.0000 0
M  V30 3 C 1.7578 0.1953 0.0000 0
M  V30 4 N -0.7812 1.3672 0.0000 0
M  V30 5 N 0.3906 -0.5859 0.0000 0
M  V30 6 N 2.7344 -0.5859 0.0000 0
M  V30 7 O -3.1250 -0.3906 0.0000 0
M  V30 8 H -1.5625 -1.9531 0.0000 0
M  V30 9 H -1.5625 1.7578 0.0000 0
M  V30 10 H 0.5859 -1.7578 0.0000 0
M  V30 11 H 1.7578 1.1719 0.0000 0
M  V30 12 H 3.5156 0.1953 0.0000 0
M  V30 END ATOM
M  V30 BEGIN BOND
M  V30 1 2 1 2
M  V30 2 2 1 7
M  V30 3 1 1 8
M  V30 4 3 2 4
M  V30 5 3 2 5
M  V30 6 2 3 5
M  V30 7 1 3 6
M  V30 8 1 3 11
M  V30 9 1 4 9
M  V30 10 1 5 10
M  V30 11 1 6 12
M  V30 END BOND
M  V30 END CTAB
M  END
>  <ID>
296
$$$$
Structure_297
Score 	 12.0, smilesprid 	smiles	 smilestrue 	smiles	 similartanimoto 	0	 similardice 	0

   12   11  0  0  0  0            999 V3000
M  V30 BEGIN CTAB
M  V30 COUNTS 12 11 0 0 0
M  V30 BEGIN ATOM
M  V30 1 C -1.7578 -0.7812 0.0000 0
M  V30 2 C -0.5859 0.1953 0.0000 0
M  V30 3 C 1.7578 0.1953 0.0000 0
M  V30 4 N -0.7812 1.3672 0.0000 0
M  V30 5 N 0.3906 -0.5859 0.0000 0
M  V30 6 N 2.7344 -0.5859 0.0000 0
M  V30 7 O -3.1250 -0.3906 0.0000 0
M  V30 8 H -1.5625 -1.9531 0.0000 0
M  V30 9 H -1.5625 1.7578 0.0000 0
M  V30 10 H 0.5859 -1.7578 0.0000 0
M  V30 11 H 1.7578 1.1719 0.0000 0
M  V30 12 H 3.5156 0.1953 0.0000 0
M  V30 END ATOM
M  V30 BEGIN BOND
M  V30 1 3 1 2
M  V30 2 2 1 7
M  V30 3 1 1 8
M  V30 4 3 2 4
M  V30 5 3 2 5
M  V30 6 2 3 5
M  V30 7 1 3 6
M  V30 8 1 3 11
M  V30 9 1 4 9
M  V30 10 1 5 10
M  V30 11 1 6 12
M  V30 END BOND
M  V30 END CTAB
M  END
>  <ID>
297
$$$$
Structure_298
Score 	 6.0, smilesprid 	smiles	 smilestrue 	smiles	 similartanimoto 	0	 similardice 	0

   12   11  0  0  0  0            999 V3000
M  V30 BEGIN CTAB
M  V30 COUNTS 12 11 0 0 0
M  V30 BEGIN ATOM
M  V30 1 C -1.7578 -0.7812 0.0000 0
M  V30 2 C -0.5859 0.1953 0.0000 0
M  V30 3 C 1.7578 0.1953 0.0000 0
M  V30 4 N -0.7812 1.3672 0.0000 0
M  V30 5 N 0.3906 -0.5859 0.0000 0
M  V30 6 N 2.7344 -0.5859 0.0000 0
M  V30 7 O -3.1250 -0.3906 0.0000 0
M  V30 8 H -1.5625 -1.9531 0.0000 0
M  V30 9 H -1.5625 1.7578 0.0000 0
M  V30 10 H 0.5859 -1.7578 0.0000 0
M  V30 11 H 1.7578 1.1719 0.0000 0
M  V30 12 H 3.5156 0.1953 0.0000 0
M  V30 END ATOM
M  V30 BEGIN BOND
M  V30 1 1 1 2
M  V30 2 2 1 7
M  V30 3 1 1 8
M  V30 4 1 2 4
M  V30 5 1 2 5
M  V30 6 3 3 5
M  V30 7 1 3 6
M  V30 8 1 3 11
M  V30 9 1 4 9
M  V30 10 1 5 10
M  V30 11 1 6 12
M  V30 END BOND
M  V30 END CTAB
M  END
>  <ID>
298
$$$$
Structure_299
Score 	 6.0, smilesprid 	smiles	 smilestrue 	smiles	 similartanimoto 	0	 similardice 	0

   12   11  0  0  0  0            999 V3000
M  V30 BEGIN CTAB
M  V30 COUNTS 12 11 0 0 0
M  V30 BEGIN ATOM
M  V30 1 C -1.7578 -0.7812 0.0000 0
M  V30 2 C -0.5859 0.1953 0.0000 0
M  V30 3 C 1.7578 0.1953 0.0000 0
M  V30 4 N -0.7812 1.3672 0.0000 0
M  V30 5 N 0.3906 -0.5859 0.0000 0
M  V30 6 N 2.7344 -0.5859 0.0000 0
M  V30 7 O -3.1250 -0.3906 0.0000 0
M  V30 8 H -1.5625 -1.9531 0.0000 0
M  V30 9 H -1.5625 1.7578 0.0000 0
M  V30 10 H 0.5859 -1.7578 0.0000 0
M  V30 11 H 1.7578 1.1719 0.0000 0
M  V30 12 H 3.5156 0.1953 0.0000 0
M  V30 END ATOM
M  V30 BEGIN BOND
M  V30 1 2 1 2
M  V30 2 2 1 7
M  V30 3 1 1 8
M  V30 4 1 2 4
M  V30 5 1 2 5
M  V30 6 3 3 5
M  V30 7 1 3 6
M  V30 8 1 3 11
M  V30 9 1 4 9
M  V30 10 1 5 10
M  V30 11 1 6 12
M  V30 END BOND
M  V30 END CTAB
M  END
>  <ID>
299
$$$$
Structure_300
Score 	 8.0, smilesprid 	smiles	 smilestrue 	smiles	 similartanimoto 	0	 similardice 	0

   12   11  0  0  0  0            999 V3000
M  V30 BEGIN CTAB
M  V30 COUNTS 12 11 0 0 0
M  V30 BEGIN ATOM
M  V30 1 C -1.7578 -0.7812 0.0000 0
M  V30 2 C -0.5859 0.1953 0.0000 0
M  V30 3 C 1.7578 0.1953 0.0000 0
M  V30 4 N -0.7812 1.3672 0.0000 0
M  V30 5 N 0.3906 -0.5859 0.0000 0
M  V30 6 N 2.7344 -0.5859 0.0000 0
M  V30 7 O -3.1250 -0.3906 0.0000 0
M  V30 8 H -1.5625 -1.9531 0.0000 0
M  V30 9 H -1.5625 1.7578 0.0000 0
M  V30 10 H 0.5859 -1.7578 0.0000 0
M  V30 11 H 1.7578 1.1719 0.0000 0
M  V30 12 H 3.5156 0.1953 0.0000 0
M  V30 END ATOM
M  V30 BEGIN BOND
M  V30 1 3 1 2
M  V30 2 2 1 7
M  V30 3 1 1 8
M  V30 4 1 2 4
M  V30 5 1 2 5
M  V30 6 3 3 5
M  V30 7 1 3 6
M  V30 8 1 3 11
M  V30 9 1 4 9
M  V30 10 1 5 10
M  V30 11 1 6 12
M  V30 END BOND
M  V30 END CTAB
M  END
>  <ID>
300
$$$$
Structure_301
Score 	 4.0, smilesprid 	smiles	 smilestrue 	smiles	 similartanimoto 	0	 similardice 	0

   12   11  0  0  0  0            999 V3000
M  V30 BEGIN CTAB
M  V30 COUNTS 12 11 0 0 0
M  V30 BEGIN ATOM
M  V30 1 C -1.7578 -0.7812 0.0000 0
M  V30 2 C -0.5859 0.1953 0.0000 0
M  V30 3 C 1.7578 0.1953 0.0000 0
M  V30 4 N -0.7812 1.3672 0.0000 0
M  V30 5 N 0.3906 -0.5859 0.0000 0
M  V30 6 N 2.7344 -0.5859 0.0000 0
M  V30 7 O -3.1250 -0.3906 0.0000 0
M  V30 8 H -1.5625 -1.9531 0.0000 0
M  V30 9 H -1.5625 1.7578 0.0000 0
M  V30 10 H 0.5859 -1.7578 0.0000 0
M  V30 11 H 1.7578 1.1719 0.0000 0
M  V30 12 H 3.5156 0.1953 0.0000 0
M  V30 END ATOM
M  V30 BEGIN BOND
M  V30 1 1 1 2
M  V30 2 2 1 7
M  V30 3 1 1 8
M  V30 4 2 2 4
M  V30 5 1 2 5
M  V30 6 3 3 5
M  V30 7 1 3 6
M  V30 8 1 3 11
M  V30 9 1 4 9
M  V30 10 1 5 10
M  V30 11 1 6 12
M  V30 END BOND
M  V30 END CTAB
M  END
>  <ID>
301
$$$$
Structure_302
Score 	 6.0, smilesprid 	smiles	 smilestrue 	smiles	 similartanimoto 	0	 similardice 	0

   12   11  0  0  0  0            999 V3000
M  V30 BEGIN CTAB
M  V30 COUNTS 12 11 0 0 0
M  V30 BEGIN ATOM
M  V30 1 C -1.7578 -0.7812 0.0000 0
M  V30 2 C -0.5859 0.1953 0.0000 0
M  V30 3 C 1.7578 0.1953 0.0000 0
M  V30 4 N -0.7812 1.3672 0.0000 0
M  V30 5 N 0.3906 -0.5859 0.0000 0
M  V30 6 N 2.7344 -0.5859 0.0000 0
M  V30 7 O -3.1250 -0.3906 0.0000 0
M  V30 8 H -1.5625 -1.9531 0.0000 0
M  V30 9 H -1.5625 1.7578 0.0000 0
M  V30 10 H 0.5859 -1.7578 0.0000 0
M  V30 11 H 1.7578 1.1719 0.0000 0
M  V30 12 H 3.5156 0.1953 0.0000 0
M  V30 END ATOM
M  V30 BEGIN BOND
M  V30 1 2 1 2
M  V30 2 2 1 7
M  V30 3 1 1 8
M  V30 4 2 2 4
M  V30 5 1 2 5
M  V30 6 3 3 5
M  V30 7 1 3 6
M  V30 8 1 3 11
M  V30 9 1 4 9
M  V30 10 1 5 10
M  V30 11 1 6 12
M  V30 END BOND
M  V30 END CTAB
M  END
>  <ID>
302
$$$$
Structure_303
Score 	 8.0, smilesprid 	smiles	 smilestrue 	smiles	 similartanimoto 	0	 similardice 	0

   12   11  0  0  0  0            999 V3000
M  V30 BEGIN CTAB
M  V30 COUNTS 12 11 0 0 0
M  V30 BEGIN ATOM
M  V30 1 C -1.7578 -0.7812 0.0000 0
M  V30 2 C -0.5859 0.1953 0.0000 0
M  V30 3 C 1.7578 0.1953 0.0000 0
M  V30 4 N -0.7812 1.3672 0.0000 0
M  V30 5 N 0.3906 -0.5859 0.0000 0
M  V30 6 N 2.7344 -0.5859 0.0000 0
M  V30 7 O -3.1250 -0.3906 0.0000 0
M  V30 8 H -1.5625 -1.9531 0.0000 0
M  V30 9 H -1.5625 1.7578 0.0000 0
M  V30 10 H 0.5859 -1.7578 0.0000 0
M  V30 11 H 1.7578 1.1719 0.0000 0
M  V30 12 H 3.5156 0.1953 0.0000 0
M  V30 END ATOM
M  V30 BEGIN BOND
M  V30 1 3 1 2
M  V30 2 2 1 7
M  V30 3 1 1 8
M  V30 4 2 2 4
M  V30 5 1 2 5
M  V30 6 3 3 5
M  V30 7 1 3 6
M  V30 8 1 3 11
M  V30 9 1 4 9
M  V30 10 1 5 10
M  V30 11 1 6 12
M  V30 END BOND
M  V30 END CTAB
M  END
>  <ID>
303
$$$$
Structure_304
Score 	 6.0, smilesprid 	smiles	 smilestrue 	smiles	 similartanimoto 	0	 similardice 	0

   12   11  0  0  0  0            999 V3000
M  V30 BEGIN CTAB
M  V30 COUNTS 12 11 0 0 0
M  V30 BEGIN ATOM
M  V30 1 C -1.7578 -0.7812 0.0000 0
M  V30 2 C -0.5859 0.1953 0.0000 0
M  V30 3 C 1.7578 0.1953 0.0000 0
M  V30 4 N -0.7812 1.3672 0.0000 0
M  V30 5 N 0.3906 -0.5859 0.0000 0
M  V30 6 N 2.7344 -0.5859 0.0000 0
M  V30 7 O -3.1250 -0.3906 0.0000 0
M  V30 8 H -1.5625 -1.9531 0.0000 0
M  V30 9 H -1.5625 1.7578 0.0000 0
M  V30 10 H 0.5859 -1.7578 0.0000 0
M  V30 11 H 1.7578 1.1719 0.0000 0
M  V30 12 H 3.5156 0.1953 0.0000 0
M  V30 END ATOM
M  V30 BEGIN BOND
M  V30 1 1 1 2
M  V30 2 2 1 7
M  V30 3 1 1 8
M  V30 4 3 2 4
M  V30 5 1 2 5
M  V30 6 3 3 5
M  V30 7 1 3 6
M  V30 8 1 3 11
M  V30 9 1 4 9
M  V30 10 1 5 10
M  V30 11 1 6 12
M  V30 END BOND
M  V30 END CTAB
M  END
>  <ID>
304
$$$$
Structure_305
Score 	 8.0, smilesprid 	smiles	 smilestrue 	smiles	 similartanimoto 	0	 similardice 	0

   12   11  0  0  0  0            999 V3000
M  V30 BEGIN CTAB
M  V30 COUNTS 12 11 0 0 0
M  V30 BEGIN ATOM
M  V30 1 C -1.7578 -0.7812 0.0000 0
M  V30 2 C -0.5859 0.1953 0.0000 0
M  V30 3 C 1.7578 0.1953 0.0000 0
M  V30 4 N -0.7812 1.3672 0.0000 0
M  V30 5 N 0.3906 -0.5859 0.0000 0
M  V30 6 N 2.7344 -0.5859 0.0000 0
M  V30 7 O -3.1250 -0.3906 0.0000 0
M  V30 8 H -1.5625 -1.9531 0.0000 0
M  V30 9 H -1.5625 1.7578 0.0000 0
M  V30 10 H 0.5859 -1.7578 0.0000 0
M  V30 11 H 1.7578 1.1719 0.0000 0
M  V30 12 H 3.5156 0.1953 0.0000 0
M  V30 END ATOM
M  V30 BEGIN BOND
M  V30 1 2 1 2
M  V30 2 2 1 7
M  V30 3 1 1 8
M  V30 4 3 2 4
M  V30 5 1 2 5
M  V30 6 3 3 5
M  V30 7 1 3 6
M  V30 8 1 3 11
M  V30 9 1 4 9
M  V30 10 1 5 10
M  V30 11 1 6 12
M  V30 END BOND
M  V30 END CTAB
M  END
>  <ID>
305
$$$$
Structure_306
Score 	 10.0, smilesprid 	smiles	 smilestrue 	smiles	 similartanimoto 	0	 similardice 	0

   12   11  0  0  0  0            999 V3000
M  V30 BEGIN CTAB
M  V30 COUNTS 12 11 0 0 0
M  V30 BEGIN ATOM
M  V30 1 C -1.7578 -0.7812 0.0000 0
M  V30 2 C -0.5859 0.1953 0.0000 0
M  V30 3 C 1.7578 0.1953 0.0000 0
M  V30 4 N -0.7812 1.3672 0.0000 0
M  V30 5 N 0.3906 -0.5859 0.0000 0
M  V30 6 N 2.7344 -0.5859 0.0000 0
M  V30 7 O -3.1250 -0.3906 0.0000 0
M  V30 8 H -1.5625 -1.9531 0.0000 0
M  V30 9 H -1.5625 1.7578 0.0000 0
M  V30 10 H 0.5859 -1.7578 0.0000 0
M  V30 11 H 1.7578 1.1719 0.0000 0
M  V30 12 H 3.5156 0.1953 0.0000 0
M  V30 END ATOM
M  V30 BEGIN BOND
M  V30 1 3 1 2
M  V30 2 2 1 7
M  V30 3 1 1 8
M  V30 4 3 2 4
M  V30 5 1 2 5
M  V30 6 3 3 5
M  V30 7 1 3 6
M  V30 8 1 3 11
M  V30 9 1 4 9
M  V30 10 1 5 10
M  V30 11 1 6 12
M  V30 END BOND
M  V30 END CTAB
M  END
>  <ID>
306
$$$$
Structure_307
Score 	 6.0, smilesprid 	smiles	 smilestrue 	smiles	 similartanimoto 	0	 similardice 	0

   12   11  0  0  0  0            999 V3000
M  V30 BEGIN CTAB
M  V30 COUNTS 12 11 0 0 0
M  V30 BEGIN ATOM
M  V30 1 C -1.7578 -0.7812 0.0000 0
M  V30 2 C -0.5859 0.1953 0.0000 0
M  V30 3 C 1.7578 0.1953 0.0000 0
M  V30 4 N -0.7812 1.3672 0.0000 0
M  V30 5 N 0.3906 -0.5859 0.0000 0
M  V30 6 N 2.7344 -0.5859 0.0000 0
M  V30 7 O -3.1250 -0.3906 0.0000 0
M  V30 8 H -1.5625 -1.9531 0.0000 0
M  V30 9 H -1.5625 1.7578 0.0000 0
M  V30 10 H 0.5859 -1.7578 0.0000 0
M  V30 11 H 1.7578 1.1719 0.0000 0
M  V30 12 H 3.5156 0.1953 0.0000 0
M  V30 END ATOM
M  V30 BEGIN BOND
M  V30 1 1 1 2
M  V30 2 2 1 7
M  V30 3 1 1 8
M  V30 4 1 2 4
M  V30 5 2 2 5
M  V30 6 3 3 5
M  V30 7 1 3 6
M  V30 8 1 3 11
M  V30 9 1 4 9
M  V30 10 1 5 10
M  V30 11 1 6 12
M  V30 END BOND
M  V30 END CTAB
M  END
>  <ID>
307
$$$$
Structure_308
Score 	 8.0, smilesprid 	smiles	 smilestrue 	smiles	 similartanimoto 	0	 similardice 	0

   12   11  0  0  0  0            999 V3000
M  V30 BEGIN CTAB
M  V30 COUNTS 12 11 0 0 0
M  V30 BEGIN ATOM
M  V30 1 C -1.7578 -0.7812 0.0000 0
M  V30 2 C -0.5859 0.1953 0.0000 0
M  V30 3 C 1.7578 0.1953 0.0000 0
M  V30 4 N -0.7812 1.3672 0.0000 0
M  V30 5 N 0.3906 -0.5859 0.0000 0
M  V30 6 N 2.7344 -0.5859 0.0000 0
M  V30 7 O -3.1250 -0.3906 0.0000 0
M  V30 8 H -1.5625 -1.9531 0.0000 0
M  V30 9 H -1.5625 1.7578 0.0000 0
M  V30 10 H 0.5859 -1.7578 0.0000 0
M  V30 11 H 1.7578 1.1719 0.0000 0
M  V30 12 H 3.5156 0.1953 0.0000 0
M  V30 END ATOM
M  V30 BEGIN BOND
M  V30 1 2 1 2
M  V30 2 2 1 7
M  V30 3 1 1 8
M  V30 4 1 2 4
M  V30 5 2 2 5
M  V30 6 3 3 5
M  V30 7 1 3 6
M  V30 8 1 3 11
M  V30 9 1 4 9
M  V30 10 1 5 10
M  V30 11 1 6 12
M  V30 END BOND
M  V30 END CTAB
M  END
>  <ID>
308
$$$$
Structure_309
Score 	 10.0, smilesprid 	smiles	 smilestrue 	smiles	 similartanimoto 	0	 similardice 	0

   12   11  0  0  0  0            999 V3000
M  V30 BEGIN CTAB
M  V30 COUNTS 12 11 0 0 0
M  V30 BEGIN ATOM
M  V30 1 C -1.7578 -0.7812 0.0000 0
M  V30 2 C -0.5859 0.1953 0.0000 0
M  V30 3 C 1.7578 0.1953 0.0000 0
M  V30 4 N -0.7812 1.3672 0.0000 0
M  V30 5 N 0.3906 -0.5859 0.0000 0
M  V30 6 N 2.7344 -0.5859 0.0000 0
M  V30 7 O -3.1250 -0.3906 0.0000 0
M  V30 8 H -1.5625 -1.9531 0.0000 0
M  V30 9 H -1.5625 1.7578 0.0000 0
M  V30 10 H 0.5859 -1.7578 0.0000 0
M  V30 11 H 1.7578 1.1719 0.0000 0
M  V30 12 H 3.5156 0.1953 0.0000 0
M  V30 END ATOM
M  V30 BEGIN BOND
M  V30 1 3 1 2
M  V30 2 2 1 7
M  V30 3 1 1 8
M  V30 4 1 2 4
M  V30 5 2 2 5
M  V30 6 3 3 5
M  V30 7 1 3 6
M  V30 8 1 3 11
M  V30 9 1 4 9
M  V30 10 1 5 10
M  V30 11 1 6 12
M  V30 END BOND
M  V30 END CTAB
M  END
>  <ID>
309
$$$$
Structure_310
Score 	 6.0, smilesprid 	smiles	 smilestrue 	smiles	 similartanimoto 	0	 similardice 	0

   12   11  0  0  0  0            999 V3000
M  V30 BEGIN CTAB
M  V30 COUNTS 12 11 0 0 0
M  V30 BEGIN ATOM
M  V30 1 C -1.7578 -0.7812 0.0000 0
M  V30 2 C -0.5859 0.1953 0.0000 0
M  V30 3 C 1.7578 0.1953 0.0000 0
M  V30 4 N -0.7812 1.3672 0.0000 0
M  V30 5 N 0.3906 -0.5859 0.0000 0
M  V30 6 N 2.7344 -0.5859 0.0000 0
M  V30 7 O -3.1250 -0.3906 0.0000 0
M  V30 8 H -1.5625 -1.9531 0.0000 0
M  V30 9 H -1.5625 1.7578 0.0000 0
M  V30 10 H 0.5859 -1.7578 0.0000 0
M  V30 11 H 1.7578 1.1719 0.0000 0
M  V30 12 H 3.5156 0.1953 0.0000 0
M  V30 END ATOM
M  V30 BEGIN BOND
M  V30 1 1 1 2
M  V30 2 2 1 7
M  V30 3 1 1 8
M  V30 4 2 2 4
M  V30 5 2 2 5
M  V30 6 3 3 5
M  V30 7 1 3 6
M  V30 8 1 3 11
M  V30 9 1 4 9
M  V30 10 1 5 10
M  V30 11 1 6 12
M  V30 END BOND
M  V30 END CTAB
M  END
>  <ID>
310
$$$$
Structure_311
Score 	 8.0, smilesprid 	smiles	 smilestrue 	smiles	 similartanimoto 	0	 similardice 	0

   12   11  0  0  0  0            999 V3000
M  V30 BEGIN CTAB
M  V30 COUNTS 12 11 0 0 0
M  V30 BEGIN ATOM
M  V30 1 C -1.7578 -0.7812 0.0000 0
M  V30 2 C -0.5859 0.1953 0.0000 0
M  V30 3 C 1.7578 0.1953 0.0000 0
M  V30 4 N -0.7812 1.3672 0.0000 0
M  V30 5 N 0.3906 -0.5859 0.0000 0
M  V30 6 N 2.7344 -0.5859 0.0000 0
M  V30 7 O -3.1250 -0.3906 0.0000 0
M  V30 8 H -1.5625 -1.9531 0.0000 0
M  V30 9 H -1.5625 1.7578 0.0000 0
M  V30 10 H 0.5859 -1.7578 0.0000 0
M  V30 11 H 1.7578 1.1719 0.0000 0
M  V30 12 H 3.5156 0.1953 0.0000 0
M  V30 END ATOM
M  V30 BEGIN BOND
M  V30 1 2 1 2
M  V30 2 2 1 7
M  V30 3 1 1 8
M  V30 4 2 2 4
M  V30 5 2 2 5
M  V30 6 3 3 5
M  V30 7 1 3 6
M  V30 8 1 3 11
M  V30 9 1 4 9
M  V30 10 1 5 10
M  V30 11 1 6 12
M  V30 END BOND
M  V30 END CTAB
M  END
>  <ID>
311
$$$$
Structure_312
Score 	 10.0, smilesprid 	smiles	 smilestrue 	smiles	 similartanimoto 	0	 similardice 	0

   12   11  0  0  0  0            999 V3000
M  V30 BEGIN CTAB
M  V30 COUNTS 12 11 0 0 0
M  V30 BEGIN ATOM
M  V30 1 C -1.7578 -0.7812 0.0000 0
M  V30 2 C -0.5859 0.1953 0.0000 0
M  V30 3 C 1.7578 0.1953 0.0000 0
M  V30 4 N -0.7812 1.3672 0.0000 0
M  V30 5 N 0.3906 -0.5859 0.0000 0
M  V30 6 N 2.7344 -0.5859 0.0000 0
M  V30 7 O -3.1250 -0.3906 0.0000 0
M  V30 8 H -1.5625 -1.9531 0.0000 0
M  V30 9 H -1.5625 1.7578 0.0000 0
M  V30 10 H 0.5859 -1.7578 0.0000 0
M  V30 11 H 1.7578 1.1719 0.0000 0
M  V30 12 H 3.5156 0.1953 0.0000 0
M  V30 END ATOM
M  V30 BEGIN BOND
M  V30 1 3 1 2
M  V30 2 2 1 7
M  V30 3 1 1 8
M  V30 4 2 2 4
M  V30 5 2 2 5
M  V30 6 3 3 5
M  V30 7 1 3 6
M  V30 8 1 3 11
M  V30 9 1 4 9
M  V30 10 1 5 10
M  V30 11 1 6 12
M  V30 END BOND
M  V30 END CTAB
M  END
>  <ID>
312
$$$$
Structure_313
Score 	 8.0, smilesprid 	smiles	 smilestrue 	smiles	 similartanimoto 	0	 similardice 	0

   12   11  0  0  0  0            999 V3000
M  V30 BEGIN CTAB
M  V30 COUNTS 12 11 0 0 0
M  V30 BEGIN ATOM
M  V30 1 C -1.7578 -0.7812 0.0000 0
M  V30 2 C -0.5859 0.1953 0.0000 0
M  V30 3 C 1.7578 0.1953 0.0000 0
M  V30 4 N -0.7812 1.3672 0.0000 0
M  V30 5 N 0.3906 -0.5859 0.0000 0
M  V30 6 N 2.7344 -0.5859 0.0000 0
M  V30 7 O -3.1250 -0.3906 0.0000 0
M  V30 8 H -1.5625 -1.9531 0.0000 0
M  V30 9 H -1.5625 1.7578 0.0000 0
M  V30 10 H 0.5859 -1.7578 0.0000 0
M  V30 11 H 1.7578 1.1719 0.0000 0
M  V30 12 H 3.5156 0.1953 0.0000 0
M  V30 END ATOM
M  V30 BEGIN BOND
M  V30 1 1 1 2
M  V30 2 2 1 7
M  V30 3 1 1 8
M  V30 4 3 2 4
M  V30 5 2 2 5
M  V30 6 3 3 5
M  V30 7 1 3 6
M  V30 8 1 3 11
M  V30 9 1 4 9
M  V30 10 1 5 10
M  V30 11 1 6 12
M  V30 END BOND
M  V30 END CTAB
M  END
>  <ID>
313
$$$$
Structure_314
Score 	 10.0, smilesprid 	smiles	 smilestrue 	smiles	 similartanimoto 	0	 similardice 	0

   12   11  0  0  0  0            999 V3000
M  V30 BEGIN CTAB
M  V30 COUNTS 12 11 0 0 0
M  V30 BEGIN ATOM
M  V30 1 C -1.7578 -0.7812 0.0000 0
M  V30 2 C -0.5859 0.1953 0.0000 0
M  V30 3 C 1.7578 0.1953 0.0000 0
M  V30 4 N -0.7812 1.3672 0.0000 0
M  V30 5 N 0.3906 -0.5859 0.0000 0
M  V30 6 N 2.7344 -0.5859 0.0000 0
M  V30 7 O -3.1250 -0.3906 0.0000 0
M  V30 8 H -1.5625 -1.9531 0.0000 0
M  V30 9 H -1.5625 1.7578 0.0000 0
M  V30 10 H 0.5859 -1.7578 0.0000 0
M  V30 11 H 1.7578 1.1719 0.0000 0
M  V30 12 H 3.5156 0.1953 0.0000 0
M  V30 END ATOM
M  V30 BEGIN BOND
M  V30 1 2 1 2
M  V30 2 2 1 7
M  V30 3 1 1 8
M  V30 4 3 2 4
M  V30 5 2 2 5
M  V30 6 3 3 5
M  V30 7 1 3 6
M  V30 8 1 3 11
M  V30 9 1 4 9
M  V30 10 1 5 10
M  V30 11 1 6 12
M  V30 END BOND
M  V30 END CTAB
M  END
>  <ID>
314
$$$$
Structure_315
Score 	 12.0, smilesprid 	smiles	 smilestrue 	smiles	 similartanimoto 	0	 similardice 	0

   12   11  0  0  0  0            999 V3000
M  V30 BEGIN CTAB
M  V30 COUNTS 12 11 0 0 0
M  V30 BEGIN ATOM
M  V30 1 C -1.7578 -0.7812 0.0000 0
M  V30 2 C -0.5859 0.1953 0.0000 0
M  V30 3 C 1.7578 0.1953 0.0000 0
M  V30 4 N -0.7812 1.3672 0.0000 0
M  V30 5 N 0.3906 -0.5859 0.0000 0
M  V30 6 N 2.7344 -0.5859 0.0000 0
M  V30 7 O -3.1250 -0.3906 0.0000 0
M  V30 8 H -1.5625 -1.9531 0.0000 0
M  V30 9 H -1.5625 1.7578 0.0000 0
M  V30 10 H 0.5859 -1.7578 0.0000 0
M  V30 11 H 1.7578 1.1719 0.0000 0
M  V30 12 H 3.5156 0.1953 0.0000 0
M  V30 END ATOM
M  V30 BEGIN BOND
M  V30 1 3 1 2
M  V30 2 2 1 7
M  V30 3 1 1 8
M  V30 4 3 2 4
M  V30 5 2 2 5
M  V30 6 3 3 5
M  V30 7 1 3 6
M  V30 8 1 3 11
M  V30 9 1 4 9
M  V30 10 1 5 10
M  V30 11 1 6 12
M  V30 END BOND
M  V30 END CTAB
M  END
>  <ID>
315
$$$$
Structure_316
Score 	 8.0, smilesprid 	smiles	 smilestrue 	smiles	 similartanimoto 	0	 similardice 	0

   12   11  0  0  0  0            999 V3000
M  V30 BEGIN CTAB
M  V30 COUNTS 12 11 0 0 0
M  V30 BEGIN ATOM
M  V30 1 C -1.7578 -0.7812 0.0000 0
M  V30 2 C -0.5859 0.1953 0.0000 0
M  V30 3 C 1.7578 0.1953 0.0000 0
M  V30 4 N -0.7812 1.3672 0.0000 0
M  V30 5 N 0.3906 -0.5859 0.0000 0
M  V30 6 N 2.7344 -0.5859 0.0000 0
M  V30 7 O -3.1250 -0.3906 0.0000 0
M  V30 8 H -1.5625 -1.9531 0.0000 0
M  V30 9 H -1.5625 1.7578 0.0000 0
M  V30 10 H 0.5859 -1.7578 0.0000 0
M  V30 11 H 1.7578 1.1719 0.0000 0
M  V30 12 H 3.5156 0.1953 0.0000 0
M  V30 END ATOM
M  V30 BEGIN BOND
M  V30 1 1 1 2
M  V30 2 2 1 7
M  V30 3 1 1 8
M  V30 4 1 2 4
M  V30 5 3 2 5
M  V30 6 3 3 5
M  V30 7 1 3 6
M  V30 8 1 3 11
M  V30 9 1 4 9
M  V30 10 1 5 10
M  V30 11 1 6 12
M  V30 END BOND
M  V30 END CTAB
M  END
>  <ID>
316
$$$$
Structure_317
Score 	 10.0, smilesprid 	smiles	 smilestrue 	smiles	 similartanimoto 	0	 similardice 	0

   12   11  0  0  0  0            999 V3000
M  V30 BEGIN CTAB
M  V30 COUNTS 12 11 0 0 0
M  V30 BEGIN ATOM
M  V30 1 C -1.7578 -0.7812 0.0000 0
M  V30 2 C -0.5859 0.1953 0.0000 0
M  V30 3 C 1.7578 0.1953 0.0000 0
M  V30 4 N -0.7812 1.3672 0.0000 0
M  V30 5 N 0.3906 -0.5859 0.0000 0
M  V30 6 N 2.7344 -0.5859 0.0000 0
M  V30 7 O -3.1250 -0.3906 0.0000 0
M  V30 8 H -1.5625 -1.9531 0.0000 0
M  V30 9 H -1.5625 1.7578 0.0000 0
M  V30 10 H 0.5859 -1.7578 0.0000 0
M  V30 11 H 1.7578 1.1719 0.0000 0
M  V30 12 H 3.5156 0.1953 0.0000 0
M  V30 END ATOM
M  V30 BEGIN BOND
M  V30 1 2 1 2
M  V30 2 2 1 7
M  V30 3 1 1 8
M  V30 4 1 2 4
M  V30 5 3 2 5
M  V30 6 3 3 5
M  V30 7 1 3 6
M  V30 8 1 3 11
M  V30 9 1 4 9
M  V30 10 1 5 10
M  V30 11 1 6 12
M  V30 END BOND
M  V30 END CTAB
M  END
>  <ID>
317
$$$$
Structure_318
Score 	 12.0, smilesprid 	smiles	 smilestrue 	smiles	 similartanimoto 	0	 similardice 	0

   12   11  0  0  0  0            999 V3000
M  V30 BEGIN CTAB
M  V30 COUNTS 12 11 0 0 0
M  V30 BEGIN ATOM
M  V30 1 C -1.7578 -0.7812 0.0000 0
M  V30 2 C -0.5859 0.1953 0.0000 0
M  V30 3 C 1.7578 0.1953 0.0000 0
M  V30 4 N -0.7812 1.3672 0.0000 0
M  V30 5 N 0.3906 -0.5859 0.0000 0
M  V30 6 N 2.7344 -0.5859 0.0000 0
M  V30 7 O -3.1250 -0.3906 0.0000 0
M  V30 8 H -1.5625 -1.9531 0.0000 0
M  V30 9 H -1.5625 1.7578 0.0000 0
M  V30 10 H 0.5859 -1.7578 0.0000 0
M  V30 11 H 1.7578 1.1719 0.0000 0
M  V30 12 H 3.5156 0.1953 0.0000 0
M  V30 END ATOM
M  V30 BEGIN BOND
M  V30 1 3 1 2
M  V30 2 2 1 7
M  V30 3 1 1 8
M  V30 4 1 2 4
M  V30 5 3 2 5
M  V30 6 3 3 5
M  V30 7 1 3 6
M  V30 8 1 3 11
M  V30 9 1 4 9
M  V30 10 1 5 10
M  V30 11 1 6 12
M  V30 END BOND
M  V30 END CTAB
M  END
>  <ID>
318
$$$$
Structure_319
Score 	 8.0, smilesprid 	smiles	 smilestrue 	smiles	 similartanimoto 	0	 similardice 	0

   12   11  0  0  0  0            999 V3000
M  V30 BEGIN CTAB
M  V30 COUNTS 12 11 0 0 0
M  V30 BEGIN ATOM
M  V30 1 C -1.7578 -0.7812 0.0000 0
M  V30 2 C -0.5859 0.1953 0.0000 0
M  V30 3 C 1.7578 0.1953 0.0000 0
M  V30 4 N -0.7812 1.3672 0.0000 0
M  V30 5 N 0.3906 -0.5859 0.0000 0
M  V30 6 N 2.7344 -0.5859 0.0000 0
M  V30 7 O -3.1250 -0.3906 0.0000 0
M  V30 8 H -1.5625 -1.9531 0.0000 0
M  V30 9 H -1.5625 1.7578 0.0000 0
M  V30 10 H 0.5859 -1.7578 0.0000 0
M  V30 11 H 1.7578 1.1719 0.0000 0
M  V30 12 H 3.5156 0.1953 0.0000 0
M  V30 END ATOM
M  V30 BEGIN BOND
M  V30 1 1 1 2
M  V30 2 2 1 7
M  V30 3 1 1 8
M  V30 4 2 2 4
M  V30 5 3 2 5
M  V30 6 3 3 5
M  V30 7 1 3 6
M  V30 8 1 3 11
M  V30 9 1 4 9
M  V30 10 1 5 10
M  V30 11 1 6 12
M  V30 END BOND
M  V30 END CTAB
M  END
>  <ID>
319
$$$$
Structure_320
Score 	 10.0, smilesprid 	smiles	 smilestrue 	smiles	 similartanimoto 	0	 similardice 	0

   12   11  0  0  0  0            999 V3000
M  V30 BEGIN CTAB
M  V30 COUNTS 12 11 0 0 0
M  V30 BEGIN ATOM
M  V30 1 C -1.7578 -0.7812 0.0000 0
M  V30 2 C -0.5859 0.1953 0.0000 0
M  V30 3 C 1.7578 0.1953 0.0000 0
M  V30 4 N -0.7812 1.3672 0.0000 0
M  V30 5 N 0.3906 -0.5859 0.0000 0
M  V30 6 N 2.7344 -0.5859 0.0000 0
M  V30 7 O -3.1250 -0.3906 0.0000 0
M  V30 8 H -1.5625 -1.9531 0.0000 0
M  V30 9 H -1.5625 1.7578 0.0000 0
M  V30 10 H 0.5859 -1.7578 0.0000 0
M  V30 11 H 1.7578 1.1719 0.0000 0
M  V30 12 H 3.5156 0.1953 0.0000 0
M  V30 END ATOM
M  V30 BEGIN BOND
M  V30 1 2 1 2
M  V30 2 2 1 7
M  V30 3 1 1 8
M  V30 4 2 2 4
M  V30 5 3 2 5
M  V30 6 3 3 5
M  V30 7 1 3 6
M  V30 8 1 3 11
M  V30 9 1 4 9
M  V30 10 1 5 10
M  V30 11 1 6 12
M  V30 END BOND
M  V30 END CTAB
M  END
>  <ID>
320
$$$$
Structure_321
Score 	 12.0, smilesprid 	smiles	 smilestrue 	smiles	 similartanimoto 	0	 similardice 	0

   12   11  0  0  0  0            999 V3000
M  V30 BEGIN CTAB
M  V30 COUNTS 12 11 0 0 0
M  V30 BEGIN ATOM
M  V30 1 C -1.7578 -0.7812 0.0000 0
M  V30 2 C -0.5859 0.1953 0.0000 0
M  V30 3 C 1.7578 0.1953 0.0000 0
M  V30 4 N -0.7812 1.3672 0.0000 0
M  V30 5 N 0.3906 -0.5859 0.0000 0
M  V30 6 N 2.7344 -0.5859 0.0000 0
M  V30 7 O -3.1250 -0.3906 0.0000 0
M  V30 8 H -1.5625 -1.9531 0.0000 0
M  V30 9 H -1.5625 1.7578 0.0000 0
M  V30 10 H 0.5859 -1.7578 0.0000 0
M  V30 11 H 1.7578 1.1719 0.0000 0
M  V30 12 H 3.5156 0.1953 0.0000 0
M  V30 END ATOM
M  V30 BEGIN BOND
M  V30 1 3 1 2
M  V30 2 2 1 7
M  V30 3 1 1 8
M  V30 4 2 2 4
M  V30 5 3 2 5
M  V30 6 3 3 5
M  V30 7 1 3 6
M  V30 8 1 3 11
M  V30 9 1 4 9
M  V30 10 1 5 10
M  V30 11 1 6 12
M  V30 END BOND
M  V30 END CTAB
M  END
>  <ID>
321
$$$$
Structure_322
Score 	 10.0, smilesprid 	smiles	 smilestrue 	smiles	 similartanimoto 	0	 similardice 	0

   12   11  0  0  0  0            999 V3000
M  V30 BEGIN CTAB
M  V30 COUNTS 12 11 0 0 0
M  V30 BEGIN ATOM
M  V30 1 C -1.7578 -0.7812 0.0000 0
M  V30 2 C -0.5859 0.1953 0.0000 0
M  V30 3 C 1.7578 0.1953 0.0000 0
M  V30 4 N -0.7812 1.3672 0.0000 0
M  V30 5 N 0.3906 -0.5859 0.0000 0
M  V30 6 N 2.7344 -0.5859 0.0000 0
M  V30 7 O -3.1250 -0.3906 0.0000 0
M  V30 8 H -1.5625 -1.9531 0.0000 0
M  V30 9 H -1.5625 1.7578 0.0000 0
M  V30 10 H 0.5859 -1.7578 0.0000 0
M  V30 11 H 1.7578 1.1719 0.0000 0
M  V30 12 H 3.5156 0.1953 0.0000 0
M  V30 END ATOM
M  V30 BEGIN BOND
M  V30 1 1 1 2
M  V30 2 2 1 7
M  V30 3 1 1 8
M  V30 4 3 2 4
M  V30 5 3 2 5
M  V30 6 3 3 5
M  V30 7 1 3 6
M  V30 8 1 3 11
M  V30 9 1 4 9
M  V30 10 1 5 10
M  V30 11 1 6 12
M  V30 END BOND
M  V30 END CTAB
M  END
>  <ID>
322
$$$$
Structure_323
Score 	 12.0, smilesprid 	smiles	 smilestrue 	smiles	 similartanimoto 	0	 similardice 	0

   12   11  0  0  0  0            999 V3000
M  V30 BEGIN CTAB
M  V30 COUNTS 12 11 0 0 0
M  V30 BEGIN ATOM
M  V30 1 C -1.7578 -0.7812 0.0000 0
M  V30 2 C -0.5859 0.1953 0.0000 0
M  V30 3 C 1.7578 0.1953 0.0000 0
M  V30 4 N -0.7812 1.3672 0.0000 0
M  V30 5 N 0.3906 -0.5859 0.0000 0
M  V30 6 N 2.7344 -0.5859 0.0000 0
M  V30 7 O -3.1250 -0.3906 0.0000 0
M  V30 8 H -1.5625 -1.9531 0.0000 0
M  V30 9 H -1.5625 1.7578 0.0000 0
M  V30 10 H 0.5859 -1.7578 0.0000 0
M  V30 11 H 1.7578 1.1719 0.0000 0
M  V30 12 H 3.5156 0.1953 0.0000 0
M  V30 END ATOM
M  V30 BEGIN BOND
M  V30 1 2 1 2
M  V30 2 2 1 7
M  V30 3 1 1 8
M  V30 4 3 2 4
M  V30 5 3 2 5
M  V30 6 3 3 5
M  V30 7 1 3 6
M  V30 8 1 3 11
M  V30 9 1 4 9
M  V30 10 1 5 10
M  V30 11 1 6 12
M  V30 END BOND
M  V30 END CTAB
M  END
>  <ID>
323
$$$$
Structure_324
Score 	 14.0, smilesprid 	smiles	 smilestrue 	smiles	 similartanimoto 	0	 similardice 	0

   12   11  0  0  0  0            999 V3000
M  V30 BEGIN CTAB
M  V30 COUNTS 12 11 0 0 0
M  V30 BEGIN ATOM
M  V30 1 C -1.7578 -0.7812 0.0000 0
M  V30 2 C -0.5859 0.1953 0.0000 0
M  V30 3 C 1.7578 0.1953 0.0000 0
M  V30 4 N -0.7812 1.3672 0.0000 0
M  V30 5 N 0.3906 -0.5859 0.0000 0
M  V30 6 N 2.7344 -0.5859 0.0000 0
M  V30 7 O -3.1250 -0.3906 0.0000 0
M  V30 8 H -1.5625 -1.9531 0.0000 0
M  V30 9 H -1.5625 1.7578 0.0000 0
M  V30 10 H 0.5859 -1.7578 0.0000 0
M  V30 11 H 1.7578 1.1719 0.0000 0
M  V30 12 H 3.5156 0.1953 0.0000 0
M  V30 END ATOM
M  V30 BEGIN BOND
M  V30 1 3 1 2
M  V30 2 2 1 7
M  V30 3 1 1 8
M  V30 4 3 2 4
M  V30 5 3 2 5
M  V30 6 3 3 5
M  V30 7 1 3 6
M  V30 8 1 3 11
M  V30 9 1 4 9
M  V30 10 1 5 10
M  V30 11 1 6 12
M  V30 END BOND
M  V30 END CTAB
M  END
>  <ID>
324
$$$$
Structure_325
Score 	 2.0, smilesprid 	smiles	 smilestrue 	smiles	 similartanimoto 	0	 similardice 	0

   12   11  0  0  0  0            999 V3000
M  V30 BEGIN CTAB
M  V30 COUNTS 12 11 0 0 0
M  V30 BEGIN ATOM
M  V30 1 C -1.7578 -0.7812 0.0000 0
M  V30 2 C -0.5859 0.1953 0.0000 0
M  V30 3 C 1.7578 0.1953 0.0000 0
M  V30 4 N -0.7812 1.3672 0.0000 0
M  V30 5 N 0.3906 -0.5859 0.0000 0
M  V30 6 N 2.7344 -0.5859 0.0000 0
M  V30 7 O -3.1250 -0.3906 0.0000 0
M  V30 8 H -1.5625 -1.9531 0.0000 0
M  V30 9 H -1.5625 1.7578 0.0000 0
M  V30 10 H 0.5859 -1.7578 0.0000 0
M  V30 11 H 1.7578 1.1719 0.0000 0
M  V30 12 H 3.5156 0.1953 0.0000 0
M  V30 END ATOM
M  V30 BEGIN BOND
M  V30 1 1 1 2
M  V30 2 2 1 7
M  V30 3 1 1 8
M  V30 4 1 2 4
M  V30 5 1 2 5
M  V30 6 1 3 5
M  V30 7 2 3 6
M  V30 8 1 3 11
M  V30 9 1 4 9
M  V30 10 1 5 10
M  V30 11 1 6 12
M  V30 END BOND
M  V30 END CTAB
M  END
>  <ID>
325
$$$$
Structure_326
Score 	 2.0, smilesprid 	smiles	 smilestrue 	smiles	 similartanimoto 	0	 similardice 	0

   12   11  0  0  0  0            999 V3000
M  V30 BEGIN CTAB
M  V30 COUNTS 12 11 0 0 0
M  V30 BEGIN ATOM
M  V30 1 C -1.7578 -0.7812 0.0000 0
M  V30 2 C -0.5859 0.1953 0.0000 0
M  V30 3 C 1.7578 0.1953 0.0000 0
M  V30 4 N -0.7812 1.3672 0.0000 0
M  V30 5 N 0.3906 -0.5859 0.0000 0
M  V30 6 N 2.7344 -0.5859 0.0000 0
M  V30 7 O -3.1250 -0.3906 0.0000 0
M  V30 8 H -1.5625 -1.9531 0.0000 0
M  V30 9 H -1.5625 1.7578 0.0000 0
M  V30 10 H 0.5859 -1.7578 0.0000 0
M  V30 11 H 1.7578 1.1719 0.0000 0
M  V30 12 H 3.5156 0.1953 0.0000 0
M  V30 END ATOM
M  V30 BEGIN BOND
M  V30 1 2 1 2
M  V30 2 2 1 7
M  V30 3 1 1 8
M  V30 4 1 2 4
M  V30 5 1 2 5
M  V30 6 1 3 5
M  V30 7 2 3 6
M  V30 8 1 3 11
M  V30 9 1 4 9
M  V30 10 1 5 10
M  V30 11 1 6 12
M  V30 END BOND
M  V30 END CTAB
M  END
>  <ID>
326
$$$$
Structure_327
Score 	 4.0, smilesprid 	smiles	 smilestrue 	smiles	 similartanimoto 	0	 similardice 	0

   12   11  0  0  0  0            999 V3000
M  V30 BEGIN CTAB
M  V30 COUNTS 12 11 0 0 0
M  V30 BEGIN ATOM
M  V30 1 C -1.7578 -0.7812 0.0000 0
M  V30 2 C -0.5859 0.1953 0.0000 0
M  V30 3 C 1.7578 0.1953 0.0000 0
M  V30 4 N -0.7812 1.3672 0.0000 0
M  V30 5 N 0.3906 -0.5859 0.0000 0
M  V30 6 N 2.7344 -0.5859 0.0000 0
M  V30 7 O -3.1250 -0.3906 0.0000 0
M  V30 8 H -1.5625 -1.9531 0.0000 0
M  V30 9 H -1.5625 1.7578 0.0000 0
M  V30 10 H 0.5859 -1.7578 0.0000 0
M  V30 11 H 1.7578 1.1719 0.0000 0
M  V30 12 H 3.5156 0.1953 0.0000 0
M  V30 END ATOM
M  V30 BEGIN BOND
M  V30 1 3 1 2
M  V30 2 2 1 7
M  V30 3 1 1 8
M  V30 4 1 2 4
M  V30 5 1 2 5
M  V30 6 1 3 5
M  V30 7 2 3 6
M  V30 8 1 3 11
M  V30 9 1 4 9
M  V30 10 1 5 10
M  V30 11 1 6 12
M  V30 END BOND
M  V30 END CTAB
M  END
>  <ID>
327
$$$$
Structure_328
Score 	 0.0, smilesprid 	smiles	 smilestrue 	smiles	 similartanimoto 	0	 similardice 	0

   12   11  0  0  0  0            999 V3000
M  V30 BEGIN CTAB
M  V30 COUNTS 12 11 0 0 0
M  V30 BEGIN ATOM
M  V30 1 C -1.7578 -0.7812 0.0000 0
M  V30 2 C -0.5859 0.1953 0.0000 0
M  V30 3 C 1.7578 0.1953 0.0000 0
M  V30 4 N -0.7812 1.3672 0.0000 0
M  V30 5 N 0.3906 -0.5859 0.0000 0
M  V30 6 N 2.7344 -0.5859 0.0000 0
M  V30 7 O -3.1250 -0.3906 0.0000 0
M  V30 8 H -1.5625 -1.9531 0.0000 0
M  V30 9 H -1.5625 1.7578 0.0000 0
M  V30 10 H 0.5859 -1.7578 0.0000 0
M  V30 11 H 1.7578 1.1719 0.0000 0
M  V30 12 H 3.5156 0.1953 0.0000 0
M  V30 END ATOM
M  V30 BEGIN BOND
M  V30 1 1 1 2
M  V30 2 2 1 7
M  V30 3 1 1 8
M  V30 4 2 2 4
M  V30 5 1 2 5
M  V30 6 1 3 5
M  V30 7 2 3 6
M  V30 8 1 3 11
M  V30 9 1 4 9
M  V30 10 1 5 10
M  V30 11 1 6 12
M  V30 END BOND
M  V30 END CTAB
M  END
>  <ID>
328
$$$$
Structure_329
Score 	 2.0, smilesprid 	smiles	 smilestrue 	smiles	 similartanimoto 	0	 similardice 	0

   12   11  0  0  0  0            999 V3000
M  V30 BEGIN CTAB
M  V30 COUNTS 12 11 0 0 0
M  V30 BEGIN ATOM
M  V30 1 C -1.7578 -0.7812 0.0000 0
M  V30 2 C -0.5859 0.1953 0.0000 0
M  V30 3 C 1.7578 0.1953 0.0000 0
M  V30 4 N -0.7812 1.3672 0.0000 0
M  V30 5 N 0.3906 -0.5859 0.0000 0
M  V30 6 N 2.7344 -0.5859 0.0000 0
M  V30 7 O -3.1250 -0.3906 0.0000 0
M  V30 8 H -1.5625 -1.9531 0.0000 0
M  V30 9 H -1.5625 1.7578 0.0000 0
M  V30 10 H 0.5859 -1.7578 0.0000 0
M  V30 11 H 1.7578 1.1719 0.0000 0
M  V30 12 H 3.5156 0.1953 0.0000 0
M  V30 END ATOM
M  V30 BEGIN BOND
M  V30 1 2 1 2
M  V30 2 2 1 7
M  V30 3 1 1 8
M  V30 4 2 2 4
M  V30 5 1 2 5
M  V30 6 1 3 5
M  V30 7 2 3 6
M  V30 8 1 3 11
M  V30 9 1 4 9
M  V30 10 1 5 10
M  V30 11 1 6 12
M  V30 END BOND
M  V30 END CTAB
M  END
>  <ID>
329
$$$$
Structure_330
Score 	 4.0, smilesprid 	smiles	 smilestrue 	smiles	 similartanimoto 	0	 similardice 	0

   12   11  0  0  0  0            999 V3000
M  V30 BEGIN CTAB
M  V30 COUNTS 12 11 0 0 0
M  V30 BEGIN ATOM
M  V30 1 C -1.7578 -0.7812 0.0000 0
M  V30 2 C -0.5859 0.1953 0.0000 0
M  V30 3 C 1.7578 0.1953 0.0000 0
M  V30 4 N -0.7812 1.3672 0.0000 0
M  V30 5 N 0.3906 -0.5859 0.0000 0
M  V30 6 N 2.7344 -0.5859 0.0000 0
M  V30 7 O -3.1250 -0.3906 0.0000 0
M  V30 8 H -1.5625 -1.9531 0.0000 0
M  V30 9 H -1.5625 1.7578 0.0000 0
M  V30 10 H 0.5859 -1.7578 0.0000 0
M  V30 11 H 1.7578 1.1719 0.0000 0
M  V30 12 H 3.5156 0.1953 0.0000 0
M  V30 END ATOM
M  V30 BEGIN BOND
M  V30 1 3 1 2
M  V30 2 2 1 7
M  V30 3 1 1 8
M  V30 4 2 2 4
M  V30 5 1 2 5
M  V30 6 1 3 5
M  V30 7 2 3 6
M  V30 8 1 3 11
M  V30 9 1 4 9
M  V30 10 1 5 10
M  V30 11 1 6 12
M  V30 END BOND
M  V30 END CTAB
M  END
>  <ID>
330
$$$$
Structure_331
Score 	 2.0, smilesprid 	smiles	 smilestrue 	smiles	 similartanimoto 	0	 similardice 	0

   12   11  0  0  0  0            999 V3000
M  V30 BEGIN CTAB
M  V30 COUNTS 12 11 0 0 0
M  V30 BEGIN ATOM
M  V30 1 C -1.7578 -0.7812 0.0000 0
M  V30 2 C -0.5859 0.1953 0.0000 0
M  V30 3 C 1.7578 0.1953 0.0000 0
M  V30 4 N -0.7812 1.3672 0.0000 0
M  V30 5 N 0.3906 -0.5859 0.0000 0
M  V30 6 N 2.7344 -0.5859 0.0000 0
M  V30 7 O -3.1250 -0.3906 0.0000 0
M  V30 8 H -1.5625 -1.9531 0.0000 0
M  V30 9 H -1.5625 1.7578 0.0000 0
M  V30 10 H 0.5859 -1.7578 0.0000 0
M  V30 11 H 1.7578 1.1719 0.0000 0
M  V30 12 H 3.5156 0.1953 0.0000 0
M  V30 END ATOM
M  V30 BEGIN BOND
M  V30 1 1 1 2
M  V30 2 2 1 7
M  V30 3 1 1 8
M  V30 4 3 2 4
M  V30 5 1 2 5
M  V30 6 1 3 5
M  V30 7 2 3 6
M  V30 8 1 3 11
M  V30 9 1 4 9
M  V30 10 1 5 10
M  V30 11 1 6 12
M  V30 END BOND
M  V30 END CTAB
M  END
>  <ID>
331
$$$$
Structure_332
Score 	 4.0, smilesprid 	smiles	 smilestrue 	smiles	 similartanimoto 	0	 similardice 	0

   12   11  0  0  0  0            999 V3000
M  V30 BEGIN CTAB
M  V30 COUNTS 12 11 0 0 0
M  V30 BEGIN ATOM
M  V30 1 C -1.7578 -0.7812 0.0000 0
M  V30 2 C -0.5859 0.1953 0.0000 0
M  V30 3 C 1.7578 0.1953 0.0000 0
M  V30 4 N -0.7812 1.3672 0.0000 0
M  V30 5 N 0.3906 -0.5859 0.0000 0
M  V30 6 N 2.7344 -0.5859 0.0000 0
M  V30 7 O -3.1250 -0.3906 0.0000 0
M  V30 8 H -1.5625 -1.9531 0.0000 0
M  V30 9 H -1.5625 1.7578 0.0000 0
M  V30 10 H 0.5859 -1.7578 0.0000 0
M  V30 11 H 1.7578 1.1719 0.0000 0
M  V30 12 H 3.5156 0.1953 0.0000 0
M  V30 END ATOM
M  V30 BEGIN BOND
M  V30 1 2 1 2
M  V30 2 2 1 7
M  V30 3 1 1 8
M  V30 4 3 2 4
M  V30 5 1 2 5
M  V30 6 1 3 5
M  V30 7 2 3 6
M  V30 8 1 3 11
M  V30 9 1 4 9
M  V30 10 1 5 10
M  V30 11 1 6 12
M  V30 END BOND
M  V30 END CTAB
M  END
>  <ID>
332
$$$$
Structure_333
Score 	 6.0, smilesprid 	smiles	 smilestrue 	smiles	 similartanimoto 	0	 similardice 	0

   12   11  0  0  0  0            999 V3000
M  V30 BEGIN CTAB
M  V30 COUNTS 12 11 0 0 0
M  V30 BEGIN ATOM
M  V30 1 C -1.7578 -0.7812 0.0000 0
M  V30 2 C -0.5859 0.1953 0.0000 0
M  V30 3 C 1.7578 0.1953 0.0000 0
M  V30 4 N -0.7812 1.3672 0.0000 0
M  V30 5 N 0.3906 -0.5859 0.0000 0
M  V30 6 N 2.7344 -0.5859 0.0000 0
M  V30 7 O -3.1250 -0.3906 0.0000 0
M  V30 8 H -1.5625 -1.9531 0.0000 0
M  V30 9 H -1.5625 1.7578 0.0000 0
M  V30 10 H 0.5859 -1.7578 0.0000 0
M  V30 11 H 1.7578 1.1719 0.0000 0
M  V30 12 H 3.5156 0.1953 0.0000 0
M  V30 END ATOM
M  V30 BEGIN BOND
M  V30 1 3 1 2
M  V30 2 2 1 7
M  V30 3 1 1 8
M  V30 4 3 2 4
M  V30 5 1 2 5
M  V30 6 1 3 5
M  V30 7 2 3 6
M  V30 8 1 3 11
M  V30 9 1 4 9
M  V30 10 1 5 10
M  V30 11 1 6 12
M  V30 END BOND
M  V30 END CTAB
M  END
>  <ID>
333
$$$$
Structure_334
Score 	 2.0, smilesprid 	smiles	 smilestrue 	smiles	 similartanimoto 	0	 similardice 	0

   12   11  0  0  0  0            999 V3000
M  V30 BEGIN CTAB
M  V30 COUNTS 12 11 0 0 0
M  V30 BEGIN ATOM
M  V30 1 C -1.7578 -0.7812 0.0000 0
M  V30 2 C -0.5859 0.1953 0.0000 0
M  V30 3 C 1.7578 0.1953 0.0000 0
M  V30 4 N -0.7812 1.3672 0.0000 0
M  V30 5 N 0.3906 -0.5859 0.0000 0
M  V30 6 N 2.7344 -0.5859 0.0000 0
M  V30 7 O -3.1250 -0.3906 0.0000 0
M  V30 8 H -1.5625 -1.9531 0.0000 0
M  V30 9 H -1.5625 1.7578 0.0000 0
M  V30 10 H 0.5859 -1.7578 0.0000 0
M  V30 11 H 1.7578 1.1719 0.0000 0
M  V30 12 H 3.5156 0.1953 0.0000 0
M  V30 END ATOM
M  V30 BEGIN BOND
M  V30 1 1 1 2
M  V30 2 2 1 7
M  V30 3 1 1 8
M  V30 4 1 2 4
M  V30 5 2 2 5
M  V30 6 1 3 5
M  V30 7 2 3 6
M  V30 8 1 3 11
M  V30 9 1 4 9
M  V30 10 1 5 10
M  V30 11 1 6 12
M  V30 END BOND
M  V30 END CTAB
M  END
>  <ID>
334
$$$$
Structure_335
Score 	 4.0, smilesprid 	smiles	 smilestrue 	smiles	 similartanimoto 	0	 similardice 	0

   12   11  0  0  0  0            999 V3000
M  V30 BEGIN CTAB
M  V30 COUNTS 12 11 0 0 0
M  V30 BEGIN ATOM
M  V30 1 C -1.7578 -0.7812 0.0000 0
M  V30 2 C -0.5859 0.1953 0.0000 0
M  V30 3 C 1.7578 0.1953 0.0000 0
M  V30 4 N -0.7812 1.3672 0.0000 0
M  V30 5 N 0.3906 -0.5859 0.0000 0
M  V30 6 N 2.7344 -0.5859 0.0000 0
M  V30 7 O -3.1250 -0.3906 0.0000 0
M  V30 8 H -1.5625 -1.9531 0.0000 0
M  V30 9 H -1.5625 1.7578 0.0000 0
M  V30 10 H 0.5859 -1.7578 0.0000 0
M  V30 11 H 1.7578 1.1719 0.0000 0
M  V30 12 H 3.5156 0.1953 0.0000 0
M  V30 END ATOM
M  V30 BEGIN BOND
M  V30 1 2 1 2
M  V30 2 2 1 7
M  V30 3 1 1 8
M  V30 4 1 2 4
M  V30 5 2 2 5
M  V30 6 1 3 5
M  V30 7 2 3 6
M  V30 8 1 3 11
M  V30 9 1 4 9
M  V30 10 1 5 10
M  V30 11 1 6 12
M  V30 END BOND
M  V30 END CTAB
M  END
>  <ID>
335
$$$$
Structure_336
Score 	 6.0, smilesprid 	smiles	 smilestrue 	smiles	 similartanimoto 	0	 similardice 	0

   12   11  0  0  0  0            999 V3000
M  V30 BEGIN CTAB
M  V30 COUNTS 12 11 0 0 0
M  V30 BEGIN ATOM
M  V30 1 C -1.7578 -0.7812 0.0000 0
M  V30 2 C -0.5859 0.1953 0.0000 0
M  V30 3 C 1.7578 0.1953 0.0000 0
M  V30 4 N -0.7812 1.3672 0.0000 0
M  V30 5 N 0.3906 -0.5859 0.0000 0
M  V30 6 N 2.7344 -0.5859 0.0000 0
M  V30 7 O -3.1250 -0.3906 0.0000 0
M  V30 8 H -1.5625 -1.9531 0.0000 0
M  V30 9 H -1.5625 1.7578 0.0000 0
M  V30 10 H 0.5859 -1.7578 0.0000 0
M  V30 11 H 1.7578 1.1719 0.0000 0
M  V30 12 H 3.5156 0.1953 0.0000 0
M  V30 END ATOM
M  V30 BEGIN BOND
M  V30 1 3 1 2
M  V30 2 2 1 7
M  V30 3 1 1 8
M  V30 4 1 2 4
M  V30 5 2 2 5
M  V30 6 1 3 5
M  V30 7 2 3 6
M  V30 8 1 3 11
M  V30 9 1 4 9
M  V30 10 1 5 10
M  V30 11 1 6 12
M  V30 END BOND
M  V30 END CTAB
M  END
>  <ID>
336
$$$$
Structure_337
Score 	 2.0, smilesprid 	smiles	 smilestrue 	smiles	 similartanimoto 	0	 similardice 	0

   12   11  0  0  0  0            999 V3000
M  V30 BEGIN CTAB
M  V30 COUNTS 12 11 0 0 0
M  V30 BEGIN ATOM
M  V30 1 C -1.7578 -0.7812 0.0000 0
M  V30 2 C -0.5859 0.1953 0.0000 0
M  V30 3 C 1.7578 0.1953 0.0000 0
M  V30 4 N -0.7812 1.3672 0.0000 0
M  V30 5 N 0.3906 -0.5859 0.0000 0
M  V30 6 N 2.7344 -0.5859 0.0000 0
M  V30 7 O -3.1250 -0.3906 0.0000 0
M  V30 8 H -1.5625 -1.9531 0.0000 0
M  V30 9 H -1.5625 1.7578 0.0000 0
M  V30 10 H 0.5859 -1.7578 0.0000 0
M  V30 11 H 1.7578 1.1719 0.0000 0
M  V30 12 H 3.5156 0.1953 0.0000 0
M  V30 END ATOM
M  V30 BEGIN BOND
M  V30 1 1 1 2
M  V30 2 2 1 7
M  V30 3 1 1 8
M  V30 4 2 2 4
M  V30 5 2 2 5
M  V30 6 1 3 5
M  V30 7 2 3 6
M  V30 8 1 3 11
M  V30 9 1 4 9
M  V30 10 1 5 10
M  V30 11 1 6 12
M  V30 END BOND
M  V30 END CTAB
M  END
>  <ID>
337
$$$$
Structure_338
Score 	 4.0, smilesprid 	smiles	 smilestrue 	smiles	 similartanimoto 	0	 similardice 	0

   12   11  0  0  0  0            999 V3000
M  V30 BEGIN CTAB
M  V30 COUNTS 12 11 0 0 0
M  V30 BEGIN ATOM
M  V30 1 C -1.7578 -0.7812 0.0000 0
M  V30 2 C -0.5859 0.1953 0.0000 0
M  V30 3 C 1.7578 0.1953 0.0000 0
M  V30 4 N -0.7812 1.3672 0.0000 0
M  V30 5 N 0.3906 -0.5859 0.0000 0
M  V30 6 N 2.7344 -0.5859 0.0000 0
M  V30 7 O -3.1250 -0.3906 0.0000 0
M  V30 8 H -1.5625 -1.9531 0.0000 0
M  V30 9 H -1.5625 1.7578 0.0000 0
M  V30 10 H 0.5859 -1.7578 0.0000 0
M  V30 11 H 1.7578 1.1719 0.0000 0
M  V30 12 H 3.5156 0.1953 0.0000 0
M  V30 END ATOM
M  V30 BEGIN BOND
M  V30 1 2 1 2
M  V30 2 2 1 7
M  V30 3 1 1 8
M  V30 4 2 2 4
M  V30 5 2 2 5
M  V30 6 1 3 5
M  V30 7 2 3 6
M  V30 8 1 3 11
M  V30 9 1 4 9
M  V30 10 1 5 10
M  V30 11 1 6 12
M  V30 END BOND
M  V30 END CTAB
M  END
>  <ID>
338
$$$$
Structure_339
Score 	 6.0, smilesprid 	smiles	 smilestrue 	smiles	 similartanimoto 	0	 similardice 	0

   12   11  0  0  0  0            999 V3000
M  V30 BEGIN CTAB
M  V30 COUNTS 12 11 0 0 0
M  V30 BEGIN ATOM
M  V30 1 C -1.7578 -0.7812 0.0000 0
M  V30 2 C -0.5859 0.1953 0.0000 0
M  V30 3 C 1.7578 0.1953 0.0000 0
M  V30 4 N -0.7812 1.3672 0.0000 0
M  V30 5 N 0.3906 -0.5859 0.0000 0
M  V30 6 N 2.7344 -0.5859 0.0000 0
M  V30 7 O -3.1250 -0.3906 0.0000 0
M  V30 8 H -1.5625 -1.9531 0.0000 0
M  V30 9 H -1.5625 1.7578 0.0000 0
M  V30 10 H 0.5859 -1.7578 0.0000 0
M  V30 11 H 1.7578 1.1719 0.0000 0
M  V30 12 H 3.5156 0.1953 0.0000 0
M  V30 END ATOM
M  V30 BEGIN BOND
M  V30 1 3 1 2
M  V30 2 2 1 7
M  V30 3 1 1 8
M  V30 4 2 2 4
M  V30 5 2 2 5
M  V30 6 1 3 5
M  V30 7 2 3 6
M  V30 8 1 3 11
M  V30 9 1 4 9
M  V30 10 1 5 10
M  V30 11 1 6 12
M  V30 END BOND
M  V30 END CTAB
M  END
>  <ID>
339
$$$$
Structure_340
Score 	 4.0, smilesprid 	smiles	 smilestrue 	smiles	 similartanimoto 	0	 similardice 	0

   12   11  0  0  0  0            999 V3000
M  V30 BEGIN CTAB
M  V30 COUNTS 12 11 0 0 0
M  V30 BEGIN ATOM
M  V30 1 C -1.7578 -0.7812 0.0000 0
M  V30 2 C -0.5859 0.1953 0.0000 0
M  V30 3 C 1.7578 0.1953 0.0000 0
M  V30 4 N -0.7812 1.3672 0.0000 0
M  V30 5 N 0.3906 -0.5859 0.0000 0
M  V30 6 N 2.7344 -0.5859 0.0000 0
M  V30 7 O -3.1250 -0.3906 0.0000 0
M  V30 8 H -1.5625 -1.9531 0.0000 0
M  V30 9 H -1.5625 1.7578 0.0000 0
M  V30 10 H 0.5859 -1.7578 0.0000 0
M  V30 11 H 1.7578 1.1719 0.0000 0
M  V30 12 H 3.5156 0.1953 0.0000 0
M  V30 END ATOM
M  V30 BEGIN BOND
M  V30 1 1 1 2
M  V30 2 2 1 7
M  V30 3 1 1 8
M  V30 4 3 2 4
M  V30 5 2 2 5
M  V30 6 1 3 5
M  V30 7 2 3 6
M  V30 8 1 3 11
M  V30 9 1 4 9
M  V30 10 1 5 10
M  V30 11 1 6 12
M  V30 END BOND
M  V30 END CTAB
M  END
>  <ID>
340
$$$$
Structure_341
Score 	 6.0, smilesprid 	smiles	 smilestrue 	smiles	 similartanimoto 	0	 similardice 	0

   12   11  0  0  0  0            999 V3000
M  V30 BEGIN CTAB
M  V30 COUNTS 12 11 0 0 0
M  V30 BEGIN ATOM
M  V30 1 C -1.7578 -0.7812 0.0000 0
M  V30 2 C -0.5859 0.1953 0.0000 0
M  V30 3 C 1.7578 0.1953 0.0000 0
M  V30 4 N -0.7812 1.3672 0.0000 0
M  V30 5 N 0.3906 -0.5859 0.0000 0
M  V30 6 N 2.7344 -0.5859 0.0000 0
M  V30 7 O -3.1250 -0.3906 0.0000 0
M  V30 8 H -1.5625 -1.9531 0.0000 0
M  V30 9 H -1.5625 1.7578 0.0000 0
M  V30 10 H 0.5859 -1.7578 0.0000 0
M  V30 11 H 1.7578 1.1719 0.0000 0
M  V30 12 H 3.5156 0.1953 0.0000 0
M  V30 END ATOM
M  V30 BEGIN BOND
M  V30 1 2 1 2
M  V30 2 2 1 7
M  V30 3 1 1 8
M  V30 4 3 2 4
M  V30 5 2 2 5
M  V30 6 1 3 5
M  V30 7 2 3 6
M  V30 8 1 3 11
M  V30 9 1 4 9
M  V30 10 1 5 10
M  V30 11 1 6 12
M  V30 END BOND
M  V30 END CTAB
M  END
>  <ID>
341
$$$$
Structure_342
Score 	 8.0, smilesprid 	smiles	 smilestrue 	smiles	 similartanimoto 	0	 similardice 	0

   12   11  0  0  0  0            999 V3000
M  V30 BEGIN CTAB
M  V30 COUNTS 12 11 0 0 0
M  V30 BEGIN ATOM
M  V30 1 C -1.7578 -0.7812 0.0000 0
M  V30 2 C -0.5859 0.1953 0.0000 0
M  V30 3 C 1.7578 0.1953 0.0000 0
M  V30 4 N -0.7812 1.3672 0.0000 0
M  V30 5 N 0.3906 -0.5859 0.0000 0
M  V30 6 N 2.7344 -0.5859 0.0000 0
M  V30 7 O -3.1250 -0.3906 0.0000 0
M  V30 8 H -1.5625 -1.9531 0.0000 0
M  V30 9 H -1.5625 1.7578 0.0000 0
M  V30 10 H 0.5859 -1.7578 0.0000 0
M  V30 11 H 1.7578 1.1719 0.0000 0
M  V30 12 H 3.5156 0.1953 0.0000 0
M  V30 END ATOM
M  V30 BEGIN BOND
M  V30 1 3 1 2
M  V30 2 2 1 7
M  V30 3 1 1 8
M  V30 4 3 2 4
M  V30 5 2 2 5
M  V30 6 1 3 5
M  V30 7 2 3 6
M  V30 8 1 3 11
M  V30 9 1 4 9
M  V30 10 1 5 10
M  V30 11 1 6 12
M  V30 END BOND
M  V30 END CTAB
M  END
>  <ID>
342
$$$$
Structure_343
Score 	 4.0, smilesprid 	smiles	 smilestrue 	smiles	 similartanimoto 	0	 similardice 	0

   12   11  0  0  0  0            999 V3000
M  V30 BEGIN CTAB
M  V30 COUNTS 12 11 0 0 0
M  V30 BEGIN ATOM
M  V30 1 C -1.7578 -0.7812 0.0000 0
M  V30 2 C -0.5859 0.1953 0.0000 0
M  V30 3 C 1.7578 0.1953 0.0000 0
M  V30 4 N -0.7812 1.3672 0.0000 0
M  V30 5 N 0.3906 -0.5859 0.0000 0
M  V30 6 N 2.7344 -0.5859 0.0000 0
M  V30 7 O -3.1250 -0.3906 0.0000 0
M  V30 8 H -1.5625 -1.9531 0.0000 0
M  V30 9 H -1.5625 1.7578 0.0000 0
M  V30 10 H 0.5859 -1.7578 0.0000 0
M  V30 11 H 1.7578 1.1719 0.0000 0
M  V30 12 H 3.5156 0.1953 0.0000 0
M  V30 END ATOM
M  V30 BEGIN BOND
M  V30 1 1 1 2
M  V30 2 2 1 7
M  V30 3 1 1 8
M  V30 4 1 2 4
M  V30 5 3 2 5
M  V30 6 1 3 5
M  V30 7 2 3 6
M  V30 8 1 3 11
M  V30 9 1 4 9
M  V30 10 1 5 10
M  V30 11 1 6 12
M  V30 END BOND
M  V30 END CTAB
M  END
>  <ID>
343
$$$$
Structure_344
Score 	 6.0, smilesprid 	smiles	 smilestrue 	smiles	 similartanimoto 	0	 similardice 	0

   12   11  0  0  0  0            999 V3000
M  V30 BEGIN CTAB
M  V30 COUNTS 12 11 0 0 0
M  V30 BEGIN ATOM
M  V30 1 C -1.7578 -0.7812 0.0000 0
M  V30 2 C -0.5859 0.1953 0.0000 0
M  V30 3 C 1.7578 0.1953 0.0000 0
M  V30 4 N -0.7812 1.3672 0.0000 0
M  V30 5 N 0.3906 -0.5859 0.0000 0
M  V30 6 N 2.7344 -0.5859 0.0000 0
M  V30 7 O -3.1250 -0.3906 0.0000 0
M  V30 8 H -1.5625 -1.9531 0.0000 0
M  V30 9 H -1.5625 1.7578 0.0000 0
M  V30 10 H 0.5859 -1.7578 0.0000 0
M  V30 11 H 1.7578 1.1719 0.0000 0
M  V30 12 H 3.5156 0.1953 0.0000 0
M  V30 END ATOM
M  V30 BEGIN BOND
M  V30 1 2 1 2
M  V30 2 2 1 7
M  V30 3 1 1 8
M  V30 4 1 2 4
M  V30 5 3 2 5
M  V30 6 1 3 5
M  V30 7 2 3 6
M  V30 8 1 3 11
M  V30 9 1 4 9
M  V30 10 1 5 10
M  V30 11 1 6 12
M  V30 END BOND
M  V30 END CTAB
M  END
>  <ID>
344
$$$$
Structure_345
Score 	 8.0, smilesprid 	smiles	 smilestrue 	smiles	 similartanimoto 	0	 similardice 	0

   12   11  0  0  0  0            999 V3000
M  V30 BEGIN CTAB
M  V30 COUNTS 12 11 0 0 0
M  V30 BEGIN ATOM
M  V30 1 C -1.7578 -0.7812 0.0000 0
M  V30 2 C -0.5859 0.1953 0.0000 0
M  V30 3 C 1.7578 0.1953 0.0000 0
M  V30 4 N -0.7812 1.3672 0.0000 0
M  V30 5 N 0.3906 -0.5859 0.0000 0
M  V30 6 N 2.7344 -0.5859 0.0000 0
M  V30 7 O -3.1250 -0.3906 0.0000 0
M  V30 8 H -1.5625 -1.9531 0.0000 0
M  V30 9 H -1.5625 1.7578 0.0000 0
M  V30 10 H 0.5859 -1.7578 0.0000 0
M  V30 11 H 1.7578 1.1719 0.0000 0
M  V30 12 H 3.5156 0.1953 0.0000 0
M  V30 END ATOM
M  V30 BEGIN BOND
M  V30 1 3 1 2
M  V30 2 2 1 7
M  V30 3 1 1 8
M  V30 4 1 2 4
M  V30 5 3 2 5
M  V30 6 1 3 5
M  V30 7 2 3 6
M  V30 8 1 3 11
M  V30 9 1 4 9
M  V30 10 1 5 10
M  V30 11 1 6 12
M  V30 END BOND
M  V30 END CTAB
M  END
>  <ID>
345
$$$$
Structure_346
Score 	 4.0, smilesprid 	smiles	 smilestrue 	smiles	 similartanimoto 	0	 similardice 	0

   12   11  0  0  0  0            999 V3000
M  V30 BEGIN CTAB
M  V30 COUNTS 12 11 0 0 0
M  V30 BEGIN ATOM
M  V30 1 C -1.7578 -0.7812 0.0000 0
M  V30 2 C -0.5859 0.1953 0.0000 0
M  V30 3 C 1.7578 0.1953 0.0000 0
M  V30 4 N -0.7812 1.3672 0.0000 0
M  V30 5 N 0.3906 -0.5859 0.0000 0
M  V30 6 N 2.7344 -0.5859 0.0000 0
M  V30 7 O -3.1250 -0.3906 0.0000 0
M  V30 8 H -1.5625 -1.9531 0.0000 0
M  V30 9 H -1.5625 1.7578 0.0000 0
M  V30 10 H 0.5859 -1.7578 0.0000 0
M  V30 11 H 1.7578 1.1719 0.0000 0
M  V30 12 H 3.5156 0.1953 0.0000 0
M  V30 END ATOM
M  V30 BEGIN BOND
M  V30 1 1 1 2
M  V30 2 2 1 7
M  V30 3 1 1 8
M  V30 4 2 2 4
M  V30 5 3 2 5
M  V30 6 1 3 5
M  V30 7 2 3 6
M  V30 8 1 3 11
M  V30 9 1 4 9
M  V30 10 1 5 10
M  V30 11 1 6 12
M  V30 END BOND
M  V30 END CTAB
M  END
>  <ID>
346
$$$$
Structure_347
Score 	 6.0, smilesprid 	smiles	 smilestrue 	smiles	 similartanimoto 	0	 similardice 	0

   12   11  0  0  0  0            999 V3000
M  V30 BEGIN CTAB
M  V30 COUNTS 12 11 0 0 0
M  V30 BEGIN ATOM
M  V30 1 C -1.7578 -0.7812 0.0000 0
M  V30 2 C -0.5859 0.1953 0.0000 0
M  V30 3 C 1.7578 0.1953 0.0000 0
M  V30 4 N -0.7812 1.3672 0.0000 0
M  V30 5 N 0.3906 -0.5859 0.0000 0
M  V30 6 N 2.7344 -0.5859 0.0000 0
M  V30 7 O -3.1250 -0.3906 0.0000 0
M  V30 8 H -1.5625 -1.9531 0.0000 0
M  V30 9 H -1.5625 1.7578 0.0000 0
M  V30 10 H 0.5859 -1.7578 0.0000 0
M  V30 11 H 1.7578 1.1719 0.0000 0
M  V30 12 H 3.5156 0.1953 0.0000 0
M  V30 END ATOM
M  V30 BEGIN BOND
M  V30 1 2 1 2
M  V30 2 2 1 7
M  V30 3 1 1 8
M  V30 4 2 2 4
M  V30 5 3 2 5
M  V30 6 1 3 5
M  V30 7 2 3 6
M  V30 8 1 3 11
M  V30 9 1 4 9
M  V30 10 1 5 10
M  V30 11 1 6 12
M  V30 END BOND
M  V30 END CTAB
M  END
>  <ID>
347
$$$$
Structure_348
Score 	 8.0, smilesprid 	smiles	 smilestrue 	smiles	 similartanimoto 	0	 similardice 	0

   12   11  0  0  0  0            999 V3000
M  V30 BEGIN CTAB
M  V30 COUNTS 12 11 0 0 0
M  V30 BEGIN ATOM
M  V30 1 C -1.7578 -0.7812 0.0000 0
M  V30 2 C -0.5859 0.1953 0.0000 0
M  V30 3 C 1.7578 0.1953 0.0000 0
M  V30 4 N -0.7812 1.3672 0.0000 0
M  V30 5 N 0.3906 -0.5859 0.0000 0
M  V30 6 N 2.7344 -0.5859 0.0000 0
M  V30 7 O -3.1250 -0.3906 0.0000 0
M  V30 8 H -1.5625 -1.9531 0.0000 0
M  V30 9 H -1.5625 1.7578 0.0000 0
M  V30 10 H 0.5859 -1.7578 0.0000 0
M  V30 11 H 1.7578 1.1719 0.0000 0
M  V30 12 H 3.5156 0.1953 0.0000 0
M  V30 END ATOM
M  V30 BEGIN BOND
M  V30 1 3 1 2
M  V30 2 2 1 7
M  V30 3 1 1 8
M  V30 4 2 2 4
M  V30 5 3 2 5
M  V30 6 1 3 5
M  V30 7 2 3 6
M  V30 8 1 3 11
M  V30 9 1 4 9
M  V30 10 1 5 10
M  V30 11 1 6 12
M  V30 END BOND
M  V30 END CTAB
M  END
>  <ID>
348
$$$$
Structure_349
Score 	 6.0, smilesprid 	smiles	 smilestrue 	smiles	 similartanimoto 	0	 similardice 	0

   12   11  0  0  0  0            999 V3000
M  V30 BEGIN CTAB
M  V30 COUNTS 12 11 0 0 0
M  V30 BEGIN ATOM
M  V30 1 C -1.7578 -0.7812 0.0000 0
M  V30 2 C -0.5859 0.1953 0.0000 0
M  V30 3 C 1.7578 0.1953 0.0000 0
M  V30 4 N -0.7812 1.3672 0.0000 0
M  V30 5 N 0.3906 -0.5859 0.0000 0
M  V30 6 N 2.7344 -0.5859 0.0000 0
M  V30 7 O -3.1250 -0.3906 0.0000 0
M  V30 8 H -1.5625 -1.9531 0.0000 0
M  V30 9 H -1.5625 1.7578 0.0000 0
M  V30 10 H 0.5859 -1.7578 0.0000 0
M  V30 11 H 1.7578 1.1719 0.0000 0
M  V30 12 H 3.5156 0.1953 0.0000 0
M  V30 END ATOM
M  V30 BEGIN BOND
M  V30 1 1 1 2
M  V30 2 2 1 7
M  V30 3 1 1 8
M  V30 4 3 2 4
M  V30 5 3 2 5
M  V30 6 1 3 5
M  V30 7 2 3 6
M  V30 8 1 3 11
M  V30 9 1 4 9
M  V30 10 1 5 10
M  V30 11 1 6 12
M  V30 END BOND
M  V30 END CTAB
M  END
>  <ID>
349
$$$$
Structure_350
Score 	 8.0, smilesprid 	smiles	 smilestrue 	smiles	 similartanimoto 	0	 similardice 	0

   12   11  0  0  0  0            999 V3000
M  V30 BEGIN CTAB
M  V30 COUNTS 12 11 0 0 0
M  V30 BEGIN ATOM
M  V30 1 C -1.7578 -0.7812 0.0000 0
M  V30 2 C -0.5859 0.1953 0.0000 0
M  V30 3 C 1.7578 0.1953 0.0000 0
M  V30 4 N -0.7812 1.3672 0.0000 0
M  V30 5 N 0.3906 -0.5859 0.0000 0
M  V30 6 N 2.7344 -0.5859 0.0000 0
M  V30 7 O -3.1250 -0.3906 0.0000 0
M  V30 8 H -1.5625 -1.9531 0.0000 0
M  V30 9 H -1.5625 1.7578 0.0000 0
M  V30 10 H 0.5859 -1.7578 0.0000 0
M  V30 11 H 1.7578 1.1719 0.0000 0
M  V30 12 H 3.5156 0.1953 0.0000 0
M  V30 END ATOM
M  V30 BEGIN BOND
M  V30 1 2 1 2
M  V30 2 2 1 7
M  V30 3 1 1 8
M  V30 4 3 2 4
M  V30 5 3 2 5
M  V30 6 1 3 5
M  V30 7 2 3 6
M  V30 8 1 3 11
M  V30 9 1 4 9
M  V30 10 1 5 10
M  V30 11 1 6 12
M  V30 END BOND
M  V30 END CTAB
M  END
>  <ID>
350
$$$$
Structure_351
Score 	 10.0, smilesprid 	smiles	 smilestrue 	smiles	 similartanimoto 	0	 similardice 	0

   12   11  0  0  0  0            999 V3000
M  V30 BEGIN CTAB
M  V30 COUNTS 12 11 0 0 0
M  V30 BEGIN ATOM
M  V30 1 C -1.7578 -0.7812 0.0000 0
M  V30 2 C -0.5859 0.1953 0.0000 0
M  V30 3 C 1.7578 0.1953 0.0000 0
M  V30 4 N -0.7812 1.3672 0.0000 0
M  V30 5 N 0.3906 -0.5859 0.0000 0
M  V30 6 N 2.7344 -0.5859 0.0000 0
M  V30 7 O -3.1250 -0.3906 0.0000 0
M  V30 8 H -1.5625 -1.9531 0.0000 0
M  V30 9 H -1.5625 1.7578 0.0000 0
M  V30 10 H 0.5859 -1.7578 0.0000 0
M  V30 11 H 1.7578 1.1719 0.0000 0
M  V30 12 H 3.5156 0.1953 0.0000 0
M  V30 END ATOM
M  V30 BEGIN BOND
M  V30 1 3 1 2
M  V30 2 2 1 7
M  V30 3 1 1 8
M  V30 4 3 2 4
M  V30 5 3 2 5
M  V30 6 1 3 5
M  V30 7 2 3 6
M  V30 8 1 3 11
M  V30 9 1 4 9
M  V30 10 1 5 10
M  V30 11 1 6 12
M  V30 END BOND
M  V30 END CTAB
M  END
>  <ID>
351
$$$$
Structure_352
Score 	 4.0, smilesprid 	smiles	 smilestrue 	smiles	 similartanimoto 	0	 similardice 	0

   12   11  0  0  0  0            999 V3000
M  V30 BEGIN CTAB
M  V30 COUNTS 12 11 0 0 0
M  V30 BEGIN ATOM
M  V30 1 C -1.7578 -0.7812 0.0000 0
M  V30 2 C -0.5859 0.1953 0.0000 0
M  V30 3 C 1.7578 0.1953 0.0000 0
M  V30 4 N -0.7812 1.3672 0.0000 0
M  V30 5 N 0.3906 -0.5859 0.0000 0
M  V30 6 N 2.7344 -0.5859 0.0000 0
M  V30 7 O -3.1250 -0.3906 0.0000 0
M  V30 8 H -1.5625 -1.9531 0.0000 0
M  V30 9 H -1.5625 1.7578 0.0000 0
M  V30 10 H 0.5859 -1.7578 0.0000 0
M  V30 11 H 1.7578 1.1719 0.0000 0
M  V30 12 H 3.5156 0.1953 0.0000 0
M  V30 END ATOM
M  V30 BEGIN BOND
M  V30 1 1 1 2
M  V30 2 2 1 7
M  V30 3 1 1 8
M  V30 4 1 2 4
M  V30 5 1 2 5
M  V30 6 2 3 5
M  V30 7 2 3 6
M  V30 8 1 3 11
M  V30 9 1 4 9
M  V30 10 1 5 10
M  V30 11 1 6 12
M  V30 END BOND
M  V30 END CTAB
M  END
>  <ID>
352
$$$$
Structure_353
Score 	 4.0, smilesprid 	smiles	 smilestrue 	smiles	 similartanimoto 	0	 similardice 	0

   12   11  0  0  0  0            999 V3000
M  V30 BEGIN CTAB
M  V30 COUNTS 12 11 0 0 0
M  V30 BEGIN ATOM
M  V30 1 C -1.7578 -0.7812 0.0000 0
M  V30 2 C -0.5859 0.1953 0.0000 0
M  V30 3 C 1.7578 0.1953 0.0000 0
M  V30 4 N -0.7812 1.3672 0.0000 0
M  V30 5 N 0.3906 -0.5859 0.0000 0
M  V30 6 N 2.7344 -0.5859 0.0000 0
M  V30 7 O -3.1250 -0.3906 0.0000 0
M  V30 8 H -1.5625 -1.9531 0.0000 0
M  V30 9 H -1.5625 1.7578 0.0000 0
M  V30 10 H 0.5859 -1.7578 0.0000 0
M  V30 11 H 1.7578 1.1719 0.0000 0
M  V30 12 H 3.5156 0.1953 0.0000 0
M  V30 END ATOM
M  V30 BEGIN BOND
M  V30 1 2 1 2
M  V30 2 2 1 7
M  V30 3 1 1 8
M  V30 4 1 2 4
M  V30 5 1 2 5
M  V30 6 2 3 5
M  V30 7 2 3 6
M  V30 8 1 3 11
M  V30 9 1 4 9
M  V30 10 1 5 10
M  V30 11 1 6 12
M  V30 END BOND
M  V30 END CTAB
M  END
>  <ID>
353
$$$$
Structure_354
Score 	 6.0, smilesprid 	smiles	 smilestrue 	smiles	 similartanimoto 	0	 similardice 	0

   12   11  0  0  0  0            999 V3000
M  V30 BEGIN CTAB
M  V30 COUNTS 12 11 0 0 0
M  V30 BEGIN ATOM
M  V30 1 C -1.7578 -0.7812 0.0000 0
M  V30 2 C -0.5859 0.1953 0.0000 0
M  V30 3 C 1.7578 0.1953 0.0000 0
M  V30 4 N -0.7812 1.3672 0.0000 0
M  V30 5 N 0.3906 -0.5859 0.0000 0
M  V30 6 N 2.7344 -0.5859 0.0000 0
M  V30 7 O -3.1250 -0.3906 0.0000 0
M  V30 8 H -1.5625 -1.9531 0.0000 0
M  V30 9 H -1.5625 1.7578 0.0000 0
M  V30 10 H 0.5859 -1.7578 0.0000 0
M  V30 11 H 1.7578 1.1719 0.0000 0
M  V30 12 H 3.5156 0.1953 0.0000 0
M  V30 END ATOM
M  V30 BEGIN BOND
M  V30 1 3 1 2
M  V30 2 2 1 7
M  V30 3 1 1 8
M  V30 4 1 2 4
M  V30 5 1 2 5
M  V30 6 2 3 5
M  V30 7 2 3 6
M  V30 8 1 3 11
M  V30 9 1 4 9
M  V30 10 1 5 10
M  V30 11 1 6 12
M  V30 END BOND
M  V30 END CTAB
M  END
>  <ID>
354
$$$$
Structure_355
Score 	 2.0, smilesprid 	smiles	 smilestrue 	smiles	 similartanimoto 	0	 similardice 	0

   12   11  0  0  0  0            999 V3000
M  V30 BEGIN CTAB
M  V30 COUNTS 12 11 0 0 0
M  V30 BEGIN ATOM
M  V30 1 C -1.7578 -0.7812 0.0000 0
M  V30 2 C -0.5859 0.1953 0.0000 0
M  V30 3 C 1.7578 0.1953 0.0000 0
M  V30 4 N -0.7812 1.3672 0.0000 0
M  V30 5 N 0.3906 -0.5859 0.0000 0
M  V30 6 N 2.7344 -0.5859 0.0000 0
M  V30 7 O -3.1250 -0.3906 0.0000 0
M  V30 8 H -1.5625 -1.9531 0.0000 0
M  V30 9 H -1.5625 1.7578 0.0000 0
M  V30 10 H 0.5859 -1.7578 0.0000 0
M  V30 11 H 1.7578 1.1719 0.0000 0
M  V30 12 H 3.5156 0.1953 0.0000 0
M  V30 END ATOM
M  V30 BEGIN BOND
M  V30 1 1 1 2
M  V30 2 2 1 7
M  V30 3 1 1 8
M  V30 4 2 2 4
M  V30 5 1 2 5
M  V30 6 2 3 5
M  V30 7 2 3 6
M  V30 8 1 3 11
M  V30 9 1 4 9
M  V30 10 1 5 10
M  V30 11 1 6 12
M  V30 END BOND
M  V30 END CTAB
M  END
>  <ID>
355
$$$$
Structure_356
Score 	 4.0, smilesprid 	smiles	 smilestrue 	smiles	 similartanimoto 	0	 similardice 	0

   12   11  0  0  0  0            999 V3000
M  V30 BEGIN CTAB
M  V30 COUNTS 12 11 0 0 0
M  V30 BEGIN ATOM
M  V30 1 C -1.7578 -0.7812 0.0000 0
M  V30 2 C -0.5859 0.1953 0.0000 0
M  V30 3 C 1.7578 0.1953 0.0000 0
M  V30 4 N -0.7812 1.3672 0.0000 0
M  V30 5 N 0.3906 -0.5859 0.0000 0
M  V30 6 N 2.7344 -0.5859 0.0000 0
M  V30 7 O -3.1250 -0.3906 0.0000 0
M  V30 8 H -1.5625 -1.9531 0.0000 0
M  V30 9 H -1.5625 1.7578 0.0000 0
M  V30 10 H 0.5859 -1.7578 0.0000 0
M  V30 11 H 1.7578 1.1719 0.0000 0
M  V30 12 H 3.5156 0.1953 0.0000 0
M  V30 END ATOM
M  V30 BEGIN BOND
M  V30 1 2 1 2
M  V30 2 2 1 7
M  V30 3 1 1 8
M  V30 4 2 2 4
M  V30 5 1 2 5
M  V30 6 2 3 5
M  V30 7 2 3 6
M  V30 8 1 3 11
M  V30 9 1 4 9
M  V30 10 1 5 10
M  V30 11 1 6 12
M  V30 END BOND
M  V30 END CTAB
M  END
>  <ID>
356
$$$$
Structure_357
Score 	 6.0, smilesprid 	smiles	 smilestrue 	smiles	 similartanimoto 	0	 similardice 	0

   12   11  0  0  0  0            999 V3000
M  V30 BEGIN CTAB
M  V30 COUNTS 12 11 0 0 0
M  V30 BEGIN ATOM
M  V30 1 C -1.7578 -0.7812 0.0000 0
M  V30 2 C -0.5859 0.1953 0.0000 0
M  V30 3 C 1.7578 0.1953 0.0000 0
M  V30 4 N -0.7812 1.3672 0.0000 0
M  V30 5 N 0.3906 -0.5859 0.0000 0
M  V30 6 N 2.7344 -0.5859 0.0000 0
M  V30 7 O -3.1250 -0.3906 0.0000 0
M  V30 8 H -1.5625 -1.9531 0.0000 0
M  V30 9 H -1.5625 1.7578 0.0000 0
M  V30 10 H 0.5859 -1.7578 0.0000 0
M  V30 11 H 1.7578 1.1719 0.0000 0
M  V30 12 H 3.5156 0.1953 0.0000 0
M  V30 END ATOM
M  V30 BEGIN BOND
M  V30 1 3 1 2
M  V30 2 2 1 7
M  V30 3 1 1 8
M  V30 4 2 2 4
M  V30 5 1 2 5
M  V30 6 2 3 5
M  V30 7 2 3 6
M  V30 8 1 3 11
M  V30 9 1 4 9
M  V30 10 1 5 10
M  V30 11 1 6 12
M  V30 END BOND
M  V30 END CTAB
M  END
>  <ID>
357
$$$$
Structure_358
Score 	 4.0, smilesprid 	smiles	 smilestrue 	smiles	 similartanimoto 	0	 similardice 	0

   12   11  0  0  0  0            999 V3000
M  V30 BEGIN CTAB
M  V30 COUNTS 12 11 0 0 0
M  V30 BEGIN ATOM
M  V30 1 C -1.7578 -0.7812 0.0000 0
M  V30 2 C -0.5859 0.1953 0.0000 0
M  V30 3 C 1.7578 0.1953 0.0000 0
M  V30 4 N -0.7812 1.3672 0.0000 0
M  V30 5 N 0.3906 -0.5859 0.0000 0
M  V30 6 N 2.7344 -0.5859 0.0000 0
M  V30 7 O -3.1250 -0.3906 0.0000 0
M  V30 8 H -1.5625 -1.9531 0.0000 0
M  V30 9 H -1.5625 1.7578 0.0000 0
M  V30 10 H 0.5859 -1.7578 0.0000 0
M  V30 11 H 1.7578 1.1719 0.0000 0
M  V30 12 H 3.5156 0.1953 0.0000 0
M  V30 END ATOM
M  V30 BEGIN BOND
M  V30 1 1 1 2
M  V30 2 2 1 7
M  V30 3 1 1 8
M  V30 4 3 2 4
M  V30 5 1 2 5
M  V30 6 2 3 5
M  V30 7 2 3 6
M  V30 8 1 3 11
M  V30 9 1 4 9
M  V30 10 1 5 10
M  V30 11 1 6 12
M  V30 END BOND
M  V30 END CTAB
M  END
>  <ID>
358
$$$$
Structure_359
Score 	 6.0, smilesprid 	smiles	 smilestrue 	smiles	 similartanimoto 	0	 similardice 	0

   12   11  0  0  0  0            999 V3000
M  V30 BEGIN CTAB
M  V30 COUNTS 12 11 0 0 0
M  V30 BEGIN ATOM
M  V30 1 C -1.7578 -0.7812 0.0000 0
M  V30 2 C -0.5859 0.1953 0.0000 0
M  V30 3 C 1.7578 0.1953 0.0000 0
M  V30 4 N -0.7812 1.3672 0.0000 0
M  V30 5 N 0.3906 -0.5859 0.0000 0
M  V30 6 N 2.7344 -0.5859 0.0000 0
M  V30 7 O -3.1250 -0.3906 0.0000 0
M  V30 8 H -1.5625 -1.9531 0.0000 0
M  V30 9 H -1.5625 1.7578 0.0000 0
M  V30 10 H 0.5859 -1.7578 0.0000 0
M  V30 11 H 1.7578 1.1719 0.0000 0
M  V30 12 H 3.5156 0.1953 0.0000 0
M  V30 END ATOM
M  V30 BEGIN BOND
M  V30 1 2 1 2
M  V30 2 2 1 7
M  V30 3 1 1 8
M  V30 4 3 2 4
M  V30 5 1 2 5
M  V30 6 2 3 5
M  V30 7 2 3 6
M  V30 8 1 3 11
M  V30 9 1 4 9
M  V30 10 1 5 10
M  V30 11 1 6 12
M  V30 END BOND
M  V30 END CTAB
M  END
>  <ID>
359
$$$$
Structure_360
Score 	 8.0, smilesprid 	smiles	 smilestrue 	smiles	 similartanimoto 	0	 similardice 	0

   12   11  0  0  0  0            999 V3000
M  V30 BEGIN CTAB
M  V30 COUNTS 12 11 0 0 0
M  V30 BEGIN ATOM
M  V30 1 C -1.7578 -0.7812 0.0000 0
M  V30 2 C -0.5859 0.1953 0.0000 0
M  V30 3 C 1.7578 0.1953 0.0000 0
M  V30 4 N -0.7812 1.3672 0.0000 0
M  V30 5 N 0.3906 -0.5859 0.0000 0
M  V30 6 N 2.7344 -0.5859 0.0000 0
M  V30 7 O -3.1250 -0.3906 0.0000 0
M  V30 8 H -1.5625 -1.9531 0.0000 0
M  V30 9 H -1.5625 1.7578 0.0000 0
M  V30 10 H 0.5859 -1.7578 0.0000 0
M  V30 11 H 1.7578 1.1719 0.0000 0
M  V30 12 H 3.5156 0.1953 0.0000 0
M  V30 END ATOM
M  V30 BEGIN BOND
M  V30 1 3 1 2
M  V30 2 2 1 7
M  V30 3 1 1 8
M  V30 4 3 2 4
M  V30 5 1 2 5
M  V30 6 2 3 5
M  V30 7 2 3 6
M  V30 8 1 3 11
M  V30 9 1 4 9
M  V30 10 1 5 10
M  V30 11 1 6 12
M  V30 END BOND
M  V30 END CTAB
M  END
>  <ID>
360
$$$$
Structure_361
Score 	 4.0, smilesprid 	smiles	 smilestrue 	smiles	 similartanimoto 	0	 similardice 	0

   12   11  0  0  0  0            999 V3000
M  V30 BEGIN CTAB
M  V30 COUNTS 12 11 0 0 0
M  V30 BEGIN ATOM
M  V30 1 C -1.7578 -0.7812 0.0000 0
M  V30 2 C -0.5859 0.1953 0.0000 0
M  V30 3 C 1.7578 0.1953 0.0000 0
M  V30 4 N -0.7812 1.3672 0.0000 0
M  V30 5 N 0.3906 -0.5859 0.0000 0
M  V30 6 N 2.7344 -0.5859 0.0000 0
M  V30 7 O -3.1250 -0.3906 0.0000 0
M  V30 8 H -1.5625 -1.9531 0.0000 0
M  V30 9 H -1.5625 1.7578 0.0000 0
M  V30 10 H 0.5859 -1.7578 0.0000 0
M  V30 11 H 1.7578 1.1719 0.0000 0
M  V30 12 H 3.5156 0.1953 0.0000 0
M  V30 END ATOM
M  V30 BEGIN BOND
M  V30 1 1 1 2
M  V30 2 2 1 7
M  V30 3 1 1 8
M  V30 4 1 2 4
M  V30 5 2 2 5
M  V30 6 2 3 5
M  V30 7 2 3 6
M  V30 8 1 3 11
M  V30 9 1 4 9
M  V30 10 1 5 10
M  V30 11 1 6 12
M  V30 END BOND
M  V30 END CTAB
M  END
>  <ID>
361
$$$$
Structure_362
Score 	 6.0, smilesprid 	smiles	 smilestrue 	smiles	 similartanimoto 	0	 similardice 	0

   12   11  0  0  0  0            999 V3000
M  V30 BEGIN CTAB
M  V30 COUNTS 12 11 0 0 0
M  V30 BEGIN ATOM
M  V30 1 C -1.7578 -0.7812 0.0000 0
M  V30 2 C -0.5859 0.1953 0.0000 0
M  V30 3 C 1.7578 0.1953 0.0000 0
M  V30 4 N -0.7812 1.3672 0.0000 0
M  V30 5 N 0.3906 -0.5859 0.0000 0
M  V30 6 N 2.7344 -0.5859 0.0000 0
M  V30 7 O -3.1250 -0.3906 0.0000 0
M  V30 8 H -1.5625 -1.9531 0.0000 0
M  V30 9 H -1.5625 1.7578 0.0000 0
M  V30 10 H 0.5859 -1.7578 0.0000 0
M  V30 11 H 1.7578 1.1719 0.0000 0
M  V30 12 H 3.5156 0.1953 0.0000 0
M  V30 END ATOM
M  V30 BEGIN BOND
M  V30 1 2 1 2
M  V30 2 2 1 7
M  V30 3 1 1 8
M  V30 4 1 2 4
M  V30 5 2 2 5
M  V30 6 2 3 5
M  V30 7 2 3 6
M  V30 8 1 3 11
M  V30 9 1 4 9
M  V30 10 1 5 10
M  V30 11 1 6 12
M  V30 END BOND
M  V30 END CTAB
M  END
>  <ID>
362
$$$$
Structure_363
Score 	 8.0, smilesprid 	smiles	 smilestrue 	smiles	 similartanimoto 	0	 similardice 	0

   12   11  0  0  0  0            999 V3000
M  V30 BEGIN CTAB
M  V30 COUNTS 12 11 0 0 0
M  V30 BEGIN ATOM
M  V30 1 C -1.7578 -0.7812 0.0000 0
M  V30 2 C -0.5859 0.1953 0.0000 0
M  V30 3 C 1.7578 0.1953 0.0000 0
M  V30 4 N -0.7812 1.3672 0.0000 0
M  V30 5 N 0.3906 -0.5859 0.0000 0
M  V30 6 N 2.7344 -0.5859 0.0000 0
M  V30 7 O -3.1250 -0.3906 0.0000 0
M  V30 8 H -1.5625 -1.9531 0.0000 0
M  V30 9 H -1.5625 1.7578 0.0000 0
M  V30 10 H 0.5859 -1.7578 0.0000 0
M  V30 11 H 1.7578 1.1719 0.0000 0
M  V30 12 H 3.5156 0.1953 0.0000 0
M  V30 END ATOM
M  V30 BEGIN BOND
M  V30 1 3 1 2
M  V30 2 2 1 7
M  V30 3 1 1 8
M  V30 4 1 2 4
M  V30 5 2 2 5
M  V30 6 2 3 5
M  V30 7 2 3 6
M  V30 8 1 3 11
M  V30 9 1 4 9
M  V30 10 1 5 10
M  V30 11 1 6 12
M  V30 END BOND
M  V30 END CTAB
M  END
>  <ID>
363
$$$$
Structure_364
Score 	 4.0, smilesprid 	smiles	 smilestrue 	smiles	 similartanimoto 	0	 similardice 	0

   12   11  0  0  0  0            999 V3000
M  V30 BEGIN CTAB
M  V30 COUNTS 12 11 0 0 0
M  V30 BEGIN ATOM
M  V30 1 C -1.7578 -0.7812 0.0000 0
M  V30 2 C -0.5859 0.1953 0.0000 0
M  V30 3 C 1.7578 0.1953 0.0000 0
M  V30 4 N -0.7812 1.3672 0.0000 0
M  V30 5 N 0.3906 -0.5859 0.0000 0
M  V30 6 N 2.7344 -0.5859 0.0000 0
M  V30 7 O -3.1250 -0.3906 0.0000 0
M  V30 8 H -1.5625 -1.9531 0.0000 0
M  V30 9 H -1.5625 1.7578 0.0000 0
M  V30 10 H 0.5859 -1.7578 0.0000 0
M  V30 11 H 1.7578 1.1719 0.0000 0
M  V30 12 H 3.5156 0.1953 0.0000 0
M  V30 END ATOM
M  V30 BEGIN BOND
M  V30 1 1 1 2
M  V30 2 2 1 7
M  V30 3 1 1 8
M  V30 4 2 2 4
M  V30 5 2 2 5
M  V30 6 2 3 5
M  V30 7 2 3 6
M  V30 8 1 3 11
M  V30 9 1 4 9
M  V30 10 1 5 10
M  V30 11 1 6 12
M  V30 END BOND
M  V30 END CTAB
M  END
>  <ID>
364
$$$$
Structure_365
Score 	 6.0, smilesprid 	smiles	 smilestrue 	smiles	 similartanimoto 	0	 similardice 	0

   12   11  0  0  0  0            999 V3000
M  V30 BEGIN CTAB
M  V30 COUNTS 12 11 0 0 0
M  V30 BEGIN ATOM
M  V30 1 C -1.7578 -0.7812 0.0000 0
M  V30 2 C -0.5859 0.1953 0.0000 0
M  V30 3 C 1.7578 0.1953 0.0000 0
M  V30 4 N -0.7812 1.3672 0.0000 0
M  V30 5 N 0.3906 -0.5859 0.0000 0
M  V30 6 N 2.7344 -0.5859 0.0000 0
M  V30 7 O -3.1250 -0.3906 0.0000 0
M  V30 8 H -1.5625 -1.9531 0.0000 0
M  V30 9 H -1.5625 1.7578 0.0000 0
M  V30 10 H 0.5859 -1.7578 0.0000 0
M  V30 11 H 1.7578 1.1719 0.0000 0
M  V30 12 H 3.5156 0.1953 0.0000 0
M  V30 END ATOM
M  V30 BEGIN BOND
M  V30 1 2 1 2
M  V30 2 2 1 7
M  V30 3 1 1 8
M  V30 4 2 2 4
M  V30 5 2 2 5
M  V30 6 2 3 5
M  V30 7 2 3 6
M  V30 8 1 3 11
M  V30 9 1 4 9
M  V30 10 1 5 10
M  V30 11 1 6 12
M  V30 END BOND
M  V30 END CTAB
M  END
>  <ID>
365
$$$$
Structure_366
Score 	 8.0, smilesprid 	smiles	 smilestrue 	smiles	 similartanimoto 	0	 similardice 	0

   12   11  0  0  0  0            999 V3000
M  V30 BEGIN CTAB
M  V30 COUNTS 12 11 0 0 0
M  V30 BEGIN ATOM
M  V30 1 C -1.7578 -0.7812 0.0000 0
M  V30 2 C -0.5859 0.1953 0.0000 0
M  V30 3 C 1.7578 0.1953 0.0000 0
M  V30 4 N -0.7812 1.3672 0.0000 0
M  V30 5 N 0.3906 -0.5859 0.0000 0
M  V30 6 N 2.7344 -0.5859 0.0000 0
M  V30 7 O -3.1250 -0.3906 0.0000 0
M  V30 8 H -1.5625 -1.9531 0.0000 0
M  V30 9 H -1.5625 1.7578 0.0000 0
M  V30 10 H 0.5859 -1.7578 0.0000 0
M  V30 11 H 1.7578 1.1719 0.0000 0
M  V30 12 H 3.5156 0.1953 0.0000 0
M  V30 END ATOM
M  V30 BEGIN BOND
M  V30 1 3 1 2
M  V30 2 2 1 7
M  V30 3 1 1 8
M  V30 4 2 2 4
M  V30 5 2 2 5
M  V30 6 2 3 5
M  V30 7 2 3 6
M  V30 8 1 3 11
M  V30 9 1 4 9
M  V30 10 1 5 10
M  V30 11 1 6 12
M  V30 END BOND
M  V30 END CTAB
M  END
>  <ID>
366
$$$$
Structure_367
Score 	 6.0, smilesprid 	smiles	 smilestrue 	smiles	 similartanimoto 	0	 similardice 	0

   12   11  0  0  0  0            999 V3000
M  V30 BEGIN CTAB
M  V30 COUNTS 12 11 0 0 0
M  V30 BEGIN ATOM
M  V30 1 C -1.7578 -0.7812 0.0000 0
M  V30 2 C -0.5859 0.1953 0.0000 0
M  V30 3 C 1.7578 0.1953 0.0000 0
M  V30 4 N -0.7812 1.3672 0.0000 0
M  V30 5 N 0.3906 -0.5859 0.0000 0
M  V30 6 N 2.7344 -0.5859 0.0000 0
M  V30 7 O -3.1250 -0.3906 0.0000 0
M  V30 8 H -1.5625 -1.9531 0.0000 0
M  V30 9 H -1.5625 1.7578 0.0000 0
M  V30 10 H 0.5859 -1.7578 0.0000 0
M  V30 11 H 1.7578 1.1719 0.0000 0
M  V30 12 H 3.5156 0.1953 0.0000 0
M  V30 END ATOM
M  V30 BEGIN BOND
M  V30 1 1 1 2
M  V30 2 2 1 7
M  V30 3 1 1 8
M  V30 4 3 2 4
M  V30 5 2 2 5
M  V30 6 2 3 5
M  V30 7 2 3 6
M  V30 8 1 3 11
M  V30 9 1 4 9
M  V30 10 1 5 10
M  V30 11 1 6 12
M  V30 END BOND
M  V30 END CTAB
M  END
>  <ID>
367
$$$$
Structure_368
Score 	 8.0, smilesprid 	smiles	 smilestrue 	smiles	 similartanimoto 	0	 similardice 	0

   12   11  0  0  0  0            999 V3000
M  V30 BEGIN CTAB
M  V30 COUNTS 12 11 0 0 0
M  V30 BEGIN ATOM
M  V30 1 C -1.7578 -0.7812 0.0000 0
M  V30 2 C -0.5859 0.1953 0.0000 0
M  V30 3 C 1.7578 0.1953 0.0000 0
M  V30 4 N -0.7812 1.3672 0.0000 0
M  V30 5 N 0.3906 -0.5859 0.0000 0
M  V30 6 N 2.7344 -0.5859 0.0000 0
M  V30 7 O -3.1250 -0.3906 0.0000 0
M  V30 8 H -1.5625 -1.9531 0.0000 0
M  V30 9 H -1.5625 1.7578 0.0000 0
M  V30 10 H 0.5859 -1.7578 0.0000 0
M  V30 11 H 1.7578 1.1719 0.0000 0
M  V30 12 H 3.5156 0.1953 0.0000 0
M  V30 END ATOM
M  V30 BEGIN BOND
M  V30 1 2 1 2
M  V30 2 2 1 7
M  V30 3 1 1 8
M  V30 4 3 2 4
M  V30 5 2 2 5
M  V30 6 2 3 5
M  V30 7 2 3 6
M  V30 8 1 3 11
M  V30 9 1 4 9
M  V30 10 1 5 10
M  V30 11 1 6 12
M  V30 END BOND
M  V30 END CTAB
M  END
>  <ID>
368
$$$$
Structure_369
Score 	 10.0, smilesprid 	smiles	 smilestrue 	smiles	 similartanimoto 	0	 similardice 	0

   12   11  0  0  0  0            999 V3000
M  V30 BEGIN CTAB
M  V30 COUNTS 12 11 0 0 0
M  V30 BEGIN ATOM
M  V30 1 C -1.7578 -0.7812 0.0000 0
M  V30 2 C -0.5859 0.1953 0.0000 0
M  V30 3 C 1.7578 0.1953 0.0000 0
M  V30 4 N -0.7812 1.3672 0.0000 0
M  V30 5 N 0.3906 -0.5859 0.0000 0
M  V30 6 N 2.7344 -0.5859 0.0000 0
M  V30 7 O -3.1250 -0.3906 0.0000 0
M  V30 8 H -1.5625 -1.9531 0.0000 0
M  V30 9 H -1.5625 1.7578 0.0000 0
M  V30 10 H 0.5859 -1.7578 0.0000 0
M  V30 11 H 1.7578 1.1719 0.0000 0
M  V30 12 H 3.5156 0.1953 0.0000 0
M  V30 END ATOM
M  V30 BEGIN BOND
M  V30 1 3 1 2
M  V30 2 2 1 7
M  V30 3 1 1 8
M  V30 4 3 2 4
M  V30 5 2 2 5
M  V30 6 2 3 5
M  V30 7 2 3 6
M  V30 8 1 3 11
M  V30 9 1 4 9
M  V30 10 1 5 10
M  V30 11 1 6 12
M  V30 END BOND
M  V30 END CTAB
M  END
>  <ID>
369
$$$$
Structure_370
Score 	 6.0, smilesprid 	smiles	 smilestrue 	smiles	 similartanimoto 	0	 similardice 	0

   12   11  0  0  0  0            999 V3000
M  V30 BEGIN CTAB
M  V30 COUNTS 12 11 0 0 0
M  V30 BEGIN ATOM
M  V30 1 C -1.7578 -0.7812 0.0000 0
M  V30 2 C -0.5859 0.1953 0.0000 0
M  V30 3 C 1.7578 0.1953 0.0000 0
M  V30 4 N -0.7812 1.3672 0.0000 0
M  V30 5 N 0.3906 -0.5859 0.0000 0
M  V30 6 N 2.7344 -0.5859 0.0000 0
M  V30 7 O -3.1250 -0.3906 0.0000 0
M  V30 8 H -1.5625 -1.9531 0.0000 0
M  V30 9 H -1.5625 1.7578 0.0000 0
M  V30 10 H 0.5859 -1.7578 0.0000 0
M  V30 11 H 1.7578 1.1719 0.0000 0
M  V30 12 H 3.5156 0.1953 0.0000 0
M  V30 END ATOM
M  V30 BEGIN BOND
M  V30 1 1 1 2
M  V30 2 2 1 7
M  V30 3 1 1 8
M  V30 4 1 2 4
M  V30 5 3 2 5
M  V30 6 2 3 5
M  V30 7 2 3 6
M  V30 8 1 3 11
M  V30 9 1 4 9
M  V30 10 1 5 10
M  V30 11 1 6 12
M  V30 END BOND
M  V30 END CTAB
M  END
>  <ID>
370
$$$$
Structure_371
Score 	 8.0, smilesprid 	smiles	 smilestrue 	smiles	 similartanimoto 	0	 similardice 	0

   12   11  0  0  0  0            999 V3000
M  V30 BEGIN CTAB
M  V30 COUNTS 12 11 0 0 0
M  V30 BEGIN ATOM
M  V30 1 C -1.7578 -0.7812 0.0000 0
M  V30 2 C -0.5859 0.1953 0.0000 0
M  V30 3 C 1.7578 0.1953 0.0000 0
M  V30 4 N -0.7812 1.3672 0.0000 0
M  V30 5 N 0.3906 -0.5859 0.0000 0
M  V30 6 N 2.7344 -0.5859 0.0000 0
M  V30 7 O -3.1250 -0.3906 0.0000 0
M  V30 8 H -1.5625 -1.9531 0.0000 0
M  V30 9 H -1.5625 1.7578 0.0000 0
M  V30 10 H 0.5859 -1.7578 0.0000 0
M  V30 11 H 1.7578 1.1719 0.0000 0
M  V30 12 H 3.5156 0.1953 0.0000 0
M  V30 END ATOM
M  V30 BEGIN BOND
M  V30 1 2 1 2
M  V30 2 2 1 7
M  V30 3 1 1 8
M  V30 4 1 2 4
M  V30 5 3 2 5
M  V30 6 2 3 5
M  V30 7 2 3 6
M  V30 8 1 3 11
M  V30 9 1 4 9
M  V30 10 1 5 10
M  V30 11 1 6 12
M  V30 END BOND
M  V30 END CTAB
M  END
>  <ID>
371
$$$$
Structure_372
Score 	 10.0, smilesprid 	smiles	 smilestrue 	smiles	 similartanimoto 	0	 similardice 	0

   12   11  0  0  0  0            999 V3000
M  V30 BEGIN CTAB
M  V30 COUNTS 12 11 0 0 0
M  V30 BEGIN ATOM
M  V30 1 C -1.7578 -0.7812 0.0000 0
M  V30 2 C -0.5859 0.1953 0.0000 0
M  V30 3 C 1.7578 0.1953 0.0000 0
M  V30 4 N -0.7812 1.3672 0.0000 0
M  V30 5 N 0.3906 -0.5859 0.0000 0
M  V30 6 N 2.7344 -0.5859 0.0000 0
M  V30 7 O -3.1250 -0.3906 0.0000 0
M  V30 8 H -1.5625 -1.9531 0.0000 0
M  V30 9 H -1.5625 1.7578 0.0000 0
M  V30 10 H 0.5859 -1.7578 0.0000 0
M  V30 11 H 1.7578 1.1719 0.0000 0
M  V30 12 H 3.5156 0.1953 0.0000 0
M  V30 END ATOM
M  V30 BEGIN BOND
M  V30 1 3 1 2
M  V30 2 2 1 7
M  V30 3 1 1 8
M  V30 4 1 2 4
M  V30 5 3 2 5
M  V30 6 2 3 5
M  V30 7 2 3 6
M  V30 8 1 3 11
M  V30 9 1 4 9
M  V30 10 1 5 10
M  V30 11 1 6 12
M  V30 END BOND
M  V30 END CTAB
M  END
>  <ID>
372
$$$$
Structure_373
Score 	 6.0, smilesprid 	smiles	 smilestrue 	smiles	 similartanimoto 	0	 similardice 	0

   12   11  0  0  0  0            999 V3000
M  V30 BEGIN CTAB
M  V30 COUNTS 12 11 0 0 0
M  V30 BEGIN ATOM
M  V30 1 C -1.7578 -0.7812 0.0000 0
M  V30 2 C -0.5859 0.1953 0.0000 0
M  V30 3 C 1.7578 0.1953 0.0000 0
M  V30 4 N -0.7812 1.3672 0.0000 0
M  V30 5 N 0.3906 -0.5859 0.0000 0
M  V30 6 N 2.7344 -0.5859 0.0000 0
M  V30 7 O -3.1250 -0.3906 0.0000 0
M  V30 8 H -1.5625 -1.9531 0.0000 0
M  V30 9 H -1.5625 1.7578 0.0000 0
M  V30 10 H 0.5859 -1.7578 0.0000 0
M  V30 11 H 1.7578 1.1719 0.0000 0
M  V30 12 H 3.5156 0.1953 0.0000 0
M  V30 END ATOM
M  V30 BEGIN BOND
M  V30 1 1 1 2
M  V30 2 2 1 7
M  V30 3 1 1 8
M  V30 4 2 2 4
M  V30 5 3 2 5
M  V30 6 2 3 5
M  V30 7 2 3 6
M  V30 8 1 3 11
M  V30 9 1 4 9
M  V30 10 1 5 10
M  V30 11 1 6 12
M  V30 END BOND
M  V30 END CTAB
M  END
>  <ID>
373
$$$$
Structure_374
Score 	 8.0, smilesprid 	smiles	 smilestrue 	smiles	 similartanimoto 	0	 similardice 	0

   12   11  0  0  0  0            999 V3000
M  V30 BEGIN CTAB
M  V30 COUNTS 12 11 0 0 0
M  V30 BEGIN ATOM
M  V30 1 C -1.7578 -0.7812 0.0000 0
M  V30 2 C -0.5859 0.1953 0.0000 0
M  V30 3 C 1.7578 0.1953 0.0000 0
M  V30 4 N -0.7812 1.3672 0.0000 0
M  V30 5 N 0.3906 -0.5859 0.0000 0
M  V30 6 N 2.7344 -0.5859 0.0000 0
M  V30 7 O -3.1250 -0.3906 0.0000 0
M  V30 8 H -1.5625 -1.9531 0.0000 0
M  V30 9 H -1.5625 1.7578 0.0000 0
M  V30 10 H 0.5859 -1.7578 0.0000 0
M  V30 11 H 1.7578 1.1719 0.0000 0
M  V30 12 H 3.5156 0.1953 0.0000 0
M  V30 END ATOM
M  V30 BEGIN BOND
M  V30 1 2 1 2
M  V30 2 2 1 7
M  V30 3 1 1 8
M  V30 4 2 2 4
M  V30 5 3 2 5
M  V30 6 2 3 5
M  V30 7 2 3 6
M  V30 8 1 3 11
M  V30 9 1 4 9
M  V30 10 1 5 10
M  V30 11 1 6 12
M  V30 END BOND
M  V30 END CTAB
M  END
>  <ID>
374
$$$$
Structure_375
Score 	 10.0, smilesprid 	smiles	 smilestrue 	smiles	 similartanimoto 	0	 similardice 	0

   12   11  0  0  0  0            999 V3000
M  V30 BEGIN CTAB
M  V30 COUNTS 12 11 0 0 0
M  V30 BEGIN ATOM
M  V30 1 C -1.7578 -0.7812 0.0000 0
M  V30 2 C -0.5859 0.1953 0.0000 0
M  V30 3 C 1.7578 0.1953 0.0000 0
M  V30 4 N -0.7812 1.3672 0.0000 0
M  V30 5 N 0.3906 -0.5859 0.0000 0
M  V30 6 N 2.7344 -0.5859 0.0000 0
M  V30 7 O -3.1250 -0.3906 0.0000 0
M  V30 8 H -1.5625 -1.9531 0.0000 0
M  V30 9 H -1.5625 1.7578 0.0000 0
M  V30 10 H 0.5859 -1.7578 0.0000 0
M  V30 11 H 1.7578 1.1719 0.0000 0
M  V30 12 H 3.5156 0.1953 0.0000 0
M  V30 END ATOM
M  V30 BEGIN BOND
M  V30 1 3 1 2
M  V30 2 2 1 7
M  V30 3 1 1 8
M  V30 4 2 2 4
M  V30 5 3 2 5
M  V30 6 2 3 5
M  V30 7 2 3 6
M  V30 8 1 3 11
M  V30 9 1 4 9
M  V30 10 1 5 10
M  V30 11 1 6 12
M  V30 END BOND
M  V30 END CTAB
M  END
>  <ID>
375
$$$$
Structure_376
Score 	 8.0, smilesprid 	smiles	 smilestrue 	smiles	 similartanimoto 	0	 similardice 	0

   12   11  0  0  0  0            999 V3000
M  V30 BEGIN CTAB
M  V30 COUNTS 12 11 0 0 0
M  V30 BEGIN ATOM
M  V30 1 C -1.7578 -0.7812 0.0000 0
M  V30 2 C -0.5859 0.1953 0.0000 0
M  V30 3 C 1.7578 0.1953 0.0000 0
M  V30 4 N -0.7812 1.3672 0.0000 0
M  V30 5 N 0.3906 -0.5859 0.0000 0
M  V30 6 N 2.7344 -0.5859 0.0000 0
M  V30 7 O -3.1250 -0.3906 0.0000 0
M  V30 8 H -1.5625 -1.9531 0.0000 0
M  V30 9 H -1.5625 1.7578 0.0000 0
M  V30 10 H 0.5859 -1.7578 0.0000 0
M  V30 11 H 1.7578 1.1719 0.0000 0
M  V30 12 H 3.5156 0.1953 0.0000 0
M  V30 END ATOM
M  V30 BEGIN BOND
M  V30 1 1 1 2
M  V30 2 2 1 7
M  V30 3 1 1 8
M  V30 4 3 2 4
M  V30 5 3 2 5
M  V30 6 2 3 5
M  V30 7 2 3 6
M  V30 8 1 3 11
M  V30 9 1 4 9
M  V30 10 1 5 10
M  V30 11 1 6 12
M  V30 END BOND
M  V30 END CTAB
M  END
>  <ID>
376
$$$$
Structure_377
Score 	 10.0, smilesprid 	smiles	 smilestrue 	smiles	 similartanimoto 	0	 similardice 	0

   12   11  0  0  0  0            999 V3000
M  V30 BEGIN CTAB
M  V30 COUNTS 12 11 0 0 0
M  V30 BEGIN ATOM
M  V30 1 C -1.7578 -0.7812 0.0000 0
M  V30 2 C -0.5859 0.1953 0.0000 0
M  V30 3 C 1.7578 0.1953 0.0000 0
M  V30 4 N -0.7812 1.3672 0.0000 0
M  V30 5 N 0.3906 -0.5859 0.0000 0
M  V30 6 N 2.7344 -0.5859 0.0000 0
M  V30 7 O -3.1250 -0.3906 0.0000 0
M  V30 8 H -1.5625 -1.9531 0.0000 0
M  V30 9 H -1.5625 1.7578 0.0000 0
M  V30 10 H 0.5859 -1.7578 0.0000 0
M  V30 11 H 1.7578 1.1719 0.0000 0
M  V30 12 H 3.5156 0.1953 0.0000 0
M  V30 END ATOM
M  V30 BEGIN BOND
M  V30 1 2 1 2
M  V30 2 2 1 7
M  V30 3 1 1 8
M  V30 4 3 2 4
M  V30 5 3 2 5
M  V30 6 2 3 5
M  V30 7 2 3 6
M  V30 8 1 3 11
M  V30 9 1 4 9
M  V30 10 1 5 10
M  V30 11 1 6 12
M  V30 END BOND
M  V30 END CTAB
M  END
>  <ID>
377
$$$$
Structure_378
Score 	 12.0, smilesprid 	smiles	 smilestrue 	smiles	 similartanimoto 	0	 similardice 	0

   12   11  0  0  0  0            999 V3000
M  V30 BEGIN CTAB
M  V30 COUNTS 12 11 0 0 0
M  V30 BEGIN ATOM
M  V30 1 C -1.7578 -0.7812 0.0000 0
M  V30 2 C -0.5859 0.1953 0.0000 0
M  V30 3 C 1.7578 0.1953 0.0000 0
M  V30 4 N -0.7812 1.3672 0.0000 0
M  V30 5 N 0.3906 -0.5859 0.0000 0
M  V30 6 N 2.7344 -0.5859 0.0000 0
M  V30 7 O -3.1250 -0.3906 0.0000 0
M  V30 8 H -1.5625 -1.9531 0.0000 0
M  V30 9 H -1.5625 1.7578 0.0000 0
M  V30 10 H 0.5859 -1.7578 0.0000 0
M  V30 11 H 1.7578 1.1719 0.0000 0
M  V30 12 H 3.5156 0.1953 0.0000 0
M  V30 END ATOM
M  V30 BEGIN BOND
M  V30 1 3 1 2
M  V30 2 2 1 7
M  V30 3 1 1 8
M  V30 4 3 2 4
M  V30 5 3 2 5
M  V30 6 2 3 5
M  V30 7 2 3 6
M  V30 8 1 3 11
M  V30 9 1 4 9
M  V30 10 1 5 10
M  V30 11 1 6 12
M  V30 END BOND
M  V30 END CTAB
M  END
>  <ID>
378
$$$$
Structure_379
Score 	 6.0, smilesprid 	smiles	 smilestrue 	smiles	 similartanimoto 	0	 similardice 	0

   12   11  0  0  0  0            999 V3000
M  V30 BEGIN CTAB
M  V30 COUNTS 12 11 0 0 0
M  V30 BEGIN ATOM
M  V30 1 C -1.7578 -0.7812 0.0000 0
M  V30 2 C -0.5859 0.1953 0.0000 0
M  V30 3 C 1.7578 0.1953 0.0000 0
M  V30 4 N -0.7812 1.3672 0.0000 0
M  V30 5 N 0.3906 -0.5859 0.0000 0
M  V30 6 N 2.7344 -0.5859 0.0000 0
M  V30 7 O -3.1250 -0.3906 0.0000 0
M  V30 8 H -1.5625 -1.9531 0.0000 0
M  V30 9 H -1.5625 1.7578 0.0000 0
M  V30 10 H 0.5859 -1.7578 0.0000 0
M  V30 11 H 1.7578 1.1719 0.0000 0
M  V30 12 H 3.5156 0.1953 0.0000 0
M  V30 END ATOM
M  V30 BEGIN BOND
M  V30 1 1 1 2
M  V30 2 2 1 7
M  V30 3 1 1 8
M  V30 4 1 2 4
M  V30 5 1 2 5
M  V30 6 3 3 5
M  V30 7 2 3 6
M  V30 8 1 3 11
M  V30 9 1 4 9
M  V30 10 1 5 10
M  V30 11 1 6 12
M  V30 END BOND
M  V30 END CTAB
M  END
>  <ID>
379
$$$$
Structure_380
Score 	 6.0, smilesprid 	smiles	 smilestrue 	smiles	 similartanimoto 	0	 similardice 	0

   12   11  0  0  0  0            999 V3000
M  V30 BEGIN CTAB
M  V30 COUNTS 12 11 0 0 0
M  V30 BEGIN ATOM
M  V30 1 C -1.7578 -0.7812 0.0000 0
M  V30 2 C -0.5859 0.1953 0.0000 0
M  V30 3 C 1.7578 0.1953 0.0000 0
M  V30 4 N -0.7812 1.3672 0.0000 0
M  V30 5 N 0.3906 -0.5859 0.0000 0
M  V30 6 N 2.7344 -0.5859 0.0000 0
M  V30 7 O -3.1250 -0.3906 0.0000 0
M  V30 8 H -1.5625 -1.9531 0.0000 0
M  V30 9 H -1.5625 1.7578 0.0000 0
M  V30 10 H 0.5859 -1.7578 0.0000 0
M  V30 11 H 1.7578 1.1719 0.0000 0
M  V30 12 H 3.5156 0.1953 0.0000 0
M  V30 END ATOM
M  V30 BEGIN BOND
M  V30 1 2 1 2
M  V30 2 2 1 7
M  V30 3 1 1 8
M  V30 4 1 2 4
M  V30 5 1 2 5
M  V30 6 3 3 5
M  V30 7 2 3 6
M  V30 8 1 3 11
M  V30 9 1 4 9
M  V30 10 1 5 10
M  V30 11 1 6 12
M  V30 END BOND
M  V30 END CTAB
M  END
>  <ID>
380
$$$$
Structure_381
Score 	 8.0, smilesprid 	smiles	 smilestrue 	smiles	 similartanimoto 	0	 similardice 	0

   12   11  0  0  0  0            999 V3000
M  V30 BEGIN CTAB
M  V30 COUNTS 12 11 0 0 0
M  V30 BEGIN ATOM
M  V30 1 C -1.7578 -0.7812 0.0000 0
M  V30 2 C -0.5859 0.1953 0.0000 0
M  V30 3 C 1.7578 0.1953 0.0000 0
M  V30 4 N -0.7812 1.3672 0.0000 0
M  V30 5 N 0.3906 -0.5859 0.0000 0
M  V30 6 N 2.7344 -0.5859 0.0000 0
M  V30 7 O -3.1250 -0.3906 0.0000 0
M  V30 8 H -1.5625 -1.9531 0.0000 0
M  V30 9 H -1.5625 1.7578 0.0000 0
M  V30 10 H 0.5859 -1.7578 0.0000 0
M  V30 11 H 1.7578 1.1719 0.0000 0
M  V30 12 H 3.5156 0.1953 0.0000 0
M  V30 END ATOM
M  V30 BEGIN BOND
M  V30 1 3 1 2
M  V30 2 2 1 7
M  V30 3 1 1 8
M  V30 4 1 2 4
M  V30 5 1 2 5
M  V30 6 3 3 5
M  V30 7 2 3 6
M  V30 8 1 3 11
M  V30 9 1 4 9
M  V30 10 1 5 10
M  V30 11 1 6 12
M  V30 END BOND
M  V30 END CTAB
M  END
>  <ID>
381
$$$$
Structure_382
Score 	 4.0, smilesprid 	smiles	 smilestrue 	smiles	 similartanimoto 	0	 similardice 	0

   12   11  0  0  0  0            999 V3000
M  V30 BEGIN CTAB
M  V30 COUNTS 12 11 0 0 0
M  V30 BEGIN ATOM
M  V30 1 C -1.7578 -0.7812 0.0000 0
M  V30 2 C -0.5859 0.1953 0.0000 0
M  V30 3 C 1.7578 0.1953 0.0000 0
M  V30 4 N -0.7812 1.3672 0.0000 0
M  V30 5 N 0.3906 -0.5859 0.0000 0
M  V30 6 N 2.7344 -0.5859 0.0000 0
M  V30 7 O -3.1250 -0.3906 0.0000 0
M  V30 8 H -1.5625 -1.9531 0.0000 0
M  V30 9 H -1.5625 1.7578 0.0000 0
M  V30 10 H 0.5859 -1.7578 0.0000 0
M  V30 11 H 1.7578 1.1719 0.0000 0
M  V30 12 H 3.5156 0.1953 0.0000 0
M  V30 END ATOM
M  V30 BEGIN BOND
M  V30 1 1 1 2
M  V30 2 2 1 7
M  V30 3 1 1 8
M  V30 4 2 2 4
M  V30 5 1 2 5
M  V30 6 3 3 5
M  V30 7 2 3 6
M  V30 8 1 3 11
M  V30 9 1 4 9
M  V30 10 1 5 10
M  V30 11 1 6 12
M  V30 END BOND
M  V30 END CTAB
M  END
>  <ID>
382
$$$$
Structure_383
Score 	 6.0, smilesprid 	smiles	 smilestrue 	smiles	 similartanimoto 	0	 similardice 	0

   12   11  0  0  0  0            999 V3000
M  V30 BEGIN CTAB
M  V30 COUNTS 12 11 0 0 0
M  V30 BEGIN ATOM
M  V30 1 C -1.7578 -0.7812 0.0000 0
M  V30 2 C -0.5859 0.1953 0.0000 0
M  V30 3 C 1.7578 0.1953 0.0000 0
M  V30 4 N -0.7812 1.3672 0.0000 0
M  V30 5 N 0.3906 -0.5859 0.0000 0
M  V30 6 N 2.7344 -0.5859 0.0000 0
M  V30 7 O -3.1250 -0.3906 0.0000 0
M  V30 8 H -1.5625 -1.9531 0.0000 0
M  V30 9 H -1.5625 1.7578 0.0000 0
M  V30 10 H 0.5859 -1.7578 0.0000 0
M  V30 11 H 1.7578 1.1719 0.0000 0
M  V30 12 H 3.5156 0.1953 0.0000 0
M  V30 END ATOM
M  V30 BEGIN BOND
M  V30 1 2 1 2
M  V30 2 2 1 7
M  V30 3 1 1 8
M  V30 4 2 2 4
M  V30 5 1 2 5
M  V30 6 3 3 5
M  V30 7 2 3 6
M  V30 8 1 3 11
M  V30 9 1 4 9
M  V30 10 1 5 10
M  V30 11 1 6 12
M  V30 END BOND
M  V30 END CTAB
M  END
>  <ID>
383
$$$$
Structure_384
Score 	 8.0, smilesprid 	smiles	 smilestrue 	smiles	 similartanimoto 	0	 similardice 	0

   12   11  0  0  0  0            999 V3000
M  V30 BEGIN CTAB
M  V30 COUNTS 12 11 0 0 0
M  V30 BEGIN ATOM
M  V30 1 C -1.7578 -0.7812 0.0000 0
M  V30 2 C -0.5859 0.1953 0.0000 0
M  V30 3 C 1.7578 0.1953 0.0000 0
M  V30 4 N -0.7812 1.3672 0.0000 0
M  V30 5 N 0.3906 -0.5859 0.0000 0
M  V30 6 N 2.7344 -0.5859 0.0000 0
M  V30 7 O -3.1250 -0.3906 0.0000 0
M  V30 8 H -1.5625 -1.9531 0.0000 0
M  V30 9 H -1.5625 1.7578 0.0000 0
M  V30 10 H 0.5859 -1.7578 0.0000 0
M  V30 11 H 1.7578 1.1719 0.0000 0
M  V30 12 H 3.5156 0.1953 0.0000 0
M  V30 END ATOM
M  V30 BEGIN BOND
M  V30 1 3 1 2
M  V30 2 2 1 7
M  V30 3 1 1 8
M  V30 4 2 2 4
M  V30 5 1 2 5
M  V30 6 3 3 5
M  V30 7 2 3 6
M  V30 8 1 3 11
M  V30 9 1 4 9
M  V30 10 1 5 10
M  V30 11 1 6 12
M  V30 END BOND
M  V30 END CTAB
M  END
>  <ID>
384
$$$$
Structure_385
Score 	 6.0, smilesprid 	smiles	 smilestrue 	smiles	 similartanimoto 	0	 similardice 	0

   12   11  0  0  0  0            999 V3000
M  V30 BEGIN CTAB
M  V30 COUNTS 12 11 0 0 0
M  V30 BEGIN ATOM
M  V30 1 C -1.7578 -0.7812 0.0000 0
M  V30 2 C -0.5859 0.1953 0.0000 0
M  V30 3 C 1.7578 0.1953 0.0000 0
M  V30 4 N -0.7812 1.3672 0.0000 0
M  V30 5 N 0.3906 -0.5859 0.0000 0
M  V30 6 N 2.7344 -0.5859 0.0000 0
M  V30 7 O -3.1250 -0.3906 0.0000 0
M  V30 8 H -1.5625 -1.9531 0.0000 0
M  V30 9 H -1.5625 1.7578 0.0000 0
M  V30 10 H 0.5859 -1.7578 0.0000 0
M  V30 11 H 1.7578 1.1719 0.0000 0
M  V30 12 H 3.5156 0.1953 0.0000 0
M  V30 END ATOM
M  V30 BEGIN BOND
M  V30 1 1 1 2
M  V30 2 2 1 7
M  V30 3 1 1 8
M  V30 4 3 2 4
M  V30 5 1 2 5
M  V30 6 3 3 5
M  V30 7 2 3 6
M  V30 8 1 3 11
M  V30 9 1 4 9
M  V30 10 1 5 10
M  V30 11 1 6 12
M  V30 END BOND
M  V30 END CTAB
M  END
>  <ID>
385
$$$$
Structure_386
Score 	 8.0, smilesprid 	smiles	 smilestrue 	smiles	 similartanimoto 	0	 similardice 	0

   12   11  0  0  0  0            999 V3000
M  V30 BEGIN CTAB
M  V30 COUNTS 12 11 0 0 0
M  V30 BEGIN ATOM
M  V30 1 C -1.7578 -0.7812 0.0000 0
M  V30 2 C -0.5859 0.1953 0.0000 0
M  V30 3 C 1.7578 0.1953 0.0000 0
M  V30 4 N -0.7812 1.3672 0.0000 0
M  V30 5 N 0.3906 -0.5859 0.0000 0
M  V30 6 N 2.7344 -0.5859 0.0000 0
M  V30 7 O -3.1250 -0.3906 0.0000 0
M  V30 8 H -1.5625 -1.9531 0.0000 0
M  V30 9 H -1.5625 1.7578 0.0000 0
M  V30 10 H 0.5859 -1.7578 0.0000 0
M  V30 11 H 1.7578 1.1719 0.0000 0
M  V30 12 H 3.5156 0.1953 0.0000 0
M  V30 END ATOM
M  V30 BEGIN BOND
M  V30 1 2 1 2
M  V30 2 2 1 7
M  V30 3 1 1 8
M  V30 4 3 2 4
M  V30 5 1 2 5
M  V30 6 3 3 5
M  V30 7 2 3 6
M  V30 8 1 3 11
M  V30 9 1 4 9
M  V30 10 1 5 10
M  V30 11 1 6 12
M  V30 END BOND
M  V30 END CTAB
M  END
>  <ID>
386
$$$$
Structure_387
Score 	 10.0, smilesprid 	smiles	 smilestrue 	smiles	 similartanimoto 	0	 similardice 	0

   12   11  0  0  0  0            999 V3000
M  V30 BEGIN CTAB
M  V30 COUNTS 12 11 0 0 0
M  V30 BEGIN ATOM
M  V30 1 C -1.7578 -0.7812 0.0000 0
M  V30 2 C -0.5859 0.1953 0.0000 0
M  V30 3 C 1.7578 0.1953 0.0000 0
M  V30 4 N -0.7812 1.3672 0.0000 0
M  V30 5 N 0.3906 -0.5859 0.0000 0
M  V30 6 N 2.7344 -0.5859 0.0000 0
M  V30 7 O -3.1250 -0.3906 0.0000 0
M  V30 8 H -1.5625 -1.9531 0.0000 0
M  V30 9 H -1.5625 1.7578 0.0000 0
M  V30 10 H 0.5859 -1.7578 0.0000 0
M  V30 11 H 1.7578 1.1719 0.0000 0
M  V30 12 H 3.5156 0.1953 0.0000 0
M  V30 END ATOM
M  V30 BEGIN BOND
M  V30 1 3 1 2
M  V30 2 2 1 7
M  V30 3 1 1 8
M  V30 4 3 2 4
M  V30 5 1 2 5
M  V30 6 3 3 5
M  V30 7 2 3 6
M  V30 8 1 3 11
M  V30 9 1 4 9
M  V30 10 1 5 10
M  V30 11 1 6 12
M  V30 END BOND
M  V30 END CTAB
M  END
>  <ID>
387
$$$$
Structure_388
Score 	 6.0, smilesprid 	smiles	 smilestrue 	smiles	 similartanimoto 	0	 similardice 	0

   12   11  0  0  0  0            999 V3000
M  V30 BEGIN CTAB
M  V30 COUNTS 12 11 0 0 0
M  V30 BEGIN ATOM
M  V30 1 C -1.7578 -0.7812 0.0000 0
M  V30 2 C -0.5859 0.1953 0.0000 0
M  V30 3 C 1.7578 0.1953 0.0000 0
M  V30 4 N -0.7812 1.3672 0.0000 0
M  V30 5 N 0.3906 -0.5859 0.0000 0
M  V30 6 N 2.7344 -0.5859 0.0000 0
M  V30 7 O -3.1250 -0.3906 0.0000 0
M  V30 8 H -1.5625 -1.9531 0.0000 0
M  V30 9 H -1.5625 1.7578 0.0000 0
M  V30 10 H 0.5859 -1.7578 0.0000 0
M  V30 11 H 1.7578 1.1719 0.0000 0
M  V30 12 H 3.5156 0.1953 0.0000 0
M  V30 END ATOM
M  V30 BEGIN BOND
M  V30 1 1 1 2
M  V30 2 2 1 7
M  V30 3 1 1 8
M  V30 4 1 2 4
M  V30 5 2 2 5
M  V30 6 3 3 5
M  V30 7 2 3 6
M  V30 8 1 3 11
M  V30 9 1 4 9
M  V30 10 1 5 10
M  V30 11 1 6 12
M  V30 END BOND
M  V30 END CTAB
M  END
>  <ID>
388
$$$$
Structure_389
Score 	 8.0, smilesprid 	smiles	 smilestrue 	smiles	 similartanimoto 	0	 similardice 	0

   12   11  0  0  0  0            999 V3000
M  V30 BEGIN CTAB
M  V30 COUNTS 12 11 0 0 0
M  V30 BEGIN ATOM
M  V30 1 C -1.7578 -0.7812 0.0000 0
M  V30 2 C -0.5859 0.1953 0.0000 0
M  V30 3 C 1.7578 0.1953 0.0000 0
M  V30 4 N -0.7812 1.3672 0.0000 0
M  V30 5 N 0.3906 -0.5859 0.0000 0
M  V30 6 N 2.7344 -0.5859 0.0000 0
M  V30 7 O -3.1250 -0.3906 0.0000 0
M  V30 8 H -1.5625 -1.9531 0.0000 0
M  V30 9 H -1.5625 1.7578 0.0000 0
M  V30 10 H 0.5859 -1.7578 0.0000 0
M  V30 11 H 1.7578 1.1719 0.0000 0
M  V30 12 H 3.5156 0.1953 0.0000 0
M  V30 END ATOM
M  V30 BEGIN BOND
M  V30 1 2 1 2
M  V30 2 2 1 7
M  V30 3 1 1 8
M  V30 4 1 2 4
M  V30 5 2 2 5
M  V30 6 3 3 5
M  V30 7 2 3 6
M  V30 8 1 3 11
M  V30 9 1 4 9
M  V30 10 1 5 10
M  V30 11 1 6 12
M  V30 END BOND
M  V30 END CTAB
M  END
>  <ID>
389
$$$$
Structure_390
Score 	 10.0, smilesprid 	smiles	 smilestrue 	smiles	 similartanimoto 	0	 similardice 	0

   12   11  0  0  0  0            999 V3000
M  V30 BEGIN CTAB
M  V30 COUNTS 12 11 0 0 0
M  V30 BEGIN ATOM
M  V30 1 C -1.7578 -0.7812 0.0000 0
M  V30 2 C -0.5859 0.1953 0.0000 0
M  V30 3 C 1.7578 0.1953 0.0000 0
M  V30 4 N -0.7812 1.3672 0.0000 0
M  V30 5 N 0.3906 -0.5859 0.0000 0
M  V30 6 N 2.7344 -0.5859 0.0000 0
M  V30 7 O -3.1250 -0.3906 0.0000 0
M  V30 8 H -1.5625 -1.9531 0.0000 0
M  V30 9 H -1.5625 1.7578 0.0000 0
M  V30 10 H 0.5859 -1.7578 0.0000 0
M  V30 11 H 1.7578 1.1719 0.0000 0
M  V30 12 H 3.5156 0.1953 0.0000 0
M  V30 END ATOM
M  V30 BEGIN BOND
M  V30 1 3 1 2
M  V30 2 2 1 7
M  V30 3 1 1 8
M  V30 4 1 2 4
M  V30 5 2 2 5
M  V30 6 3 3 5
M  V30 7 2 3 6
M  V30 8 1 3 11
M  V30 9 1 4 9
M  V30 10 1 5 10
M  V30 11 1 6 12
M  V30 END BOND
M  V30 END CTAB
M  END
>  <ID>
390
$$$$
Structure_391
Score 	 6.0, smilesprid 	smiles	 smilestrue 	smiles	 similartanimoto 	0	 similardice 	0

   12   11  0  0  0  0            999 V3000
M  V30 BEGIN CTAB
M  V30 COUNTS 12 11 0 0 0
M  V30 BEGIN ATOM
M  V30 1 C -1.7578 -0.7812 0.0000 0
M  V30 2 C -0.5859 0.1953 0.0000 0
M  V30 3 C 1.7578 0.1953 0.0000 0
M  V30 4 N -0.7812 1.3672 0.0000 0
M  V30 5 N 0.3906 -0.5859 0.0000 0
M  V30 6 N 2.7344 -0.5859 0.0000 0
M  V30 7 O -3.1250 -0.3906 0.0000 0
M  V30 8 H -1.5625 -1.9531 0.0000 0
M  V30 9 H -1.5625 1.7578 0.0000 0
M  V30 10 H 0.5859 -1.7578 0.0000 0
M  V30 11 H 1.7578 1.1719 0.0000 0
M  V30 12 H 3.5156 0.1953 0.0000 0
M  V30 END ATOM
M  V30 BEGIN BOND
M  V30 1 1 1 2
M  V30 2 2 1 7
M  V30 3 1 1 8
M  V30 4 2 2 4
M  V30 5 2 2 5
M  V30 6 3 3 5
M  V30 7 2 3 6
M  V30 8 1 3 11
M  V30 9 1 4 9
M  V30 10 1 5 10
M  V30 11 1 6 12
M  V30 END BOND
M  V30 END CTAB
M  END
>  <ID>
391
$$$$
Structure_392
Score 	 8.0, smilesprid 	smiles	 smilestrue 	smiles	 similartanimoto 	0	 similardice 	0

   12   11  0  0  0  0            999 V3000
M  V30 BEGIN CTAB
M  V30 COUNTS 12 11 0 0 0
M  V30 BEGIN ATOM
M  V30 1 C -1.7578 -0.7812 0.0000 0
M  V30 2 C -0.5859 0.1953 0.0000 0
M  V30 3 C 1.7578 0.1953 0.0000 0
M  V30 4 N -0.7812 1.3672 0.0000 0
M  V30 5 N 0.3906 -0.5859 0.0000 0
M  V30 6 N 2.7344 -0.5859 0.0000 0
M  V30 7 O -3.1250 -0.3906 0.0000 0
M  V30 8 H -1.5625 -1.9531 0.0000 0
M  V30 9 H -1.5625 1.7578 0.0000 0
M  V30 10 H 0.5859 -1.7578 0.0000 0
M  V30 11 H 1.7578 1.1719 0.0000 0
M  V30 12 H 3.5156 0.1953 0.0000 0
M  V30 END ATOM
M  V30 BEGIN BOND
M  V30 1 2 1 2
M  V30 2 2 1 7
M  V30 3 1 1 8
M  V30 4 2 2 4
M  V30 5 2 2 5
M  V30 6 3 3 5
M  V30 7 2 3 6
M  V30 8 1 3 11
M  V30 9 1 4 9
M  V30 10 1 5 10
M  V30 11 1 6 12
M  V30 END BOND
M  V30 END CTAB
M  END
>  <ID>
392
$$$$
Structure_393
Score 	 10.0, smilesprid 	smiles	 smilestrue 	smiles	 similartanimoto 	0	 similardice 	0

   12   11  0  0  0  0            999 V3000
M  V30 BEGIN CTAB
M  V30 COUNTS 12 11 0 0 0
M  V30 BEGIN ATOM
M  V30 1 C -1.7578 -0.7812 0.0000 0
M  V30 2 C -0.5859 0.1953 0.0000 0
M  V30 3 C 1.7578 0.1953 0.0000 0
M  V30 4 N -0.7812 1.3672 0.0000 0
M  V30 5 N 0.3906 -0.5859 0.0000 0
M  V30 6 N 2.7344 -0.5859 0.0000 0
M  V30 7 O -3.1250 -0.3906 0.0000 0
M  V30 8 H -1.5625 -1.9531 0.0000 0
M  V30 9 H -1.5625 1.7578 0.0000 0
M  V30 10 H 0.5859 -1.7578 0.0000 0
M  V30 11 H 1.7578 1.1719 0.0000 0
M  V30 12 H 3.5156 0.1953 0.0000 0
M  V30 END ATOM
M  V30 BEGIN BOND
M  V30 1 3 1 2
M  V30 2 2 1 7
M  V30 3 1 1 8
M  V30 4 2 2 4
M  V30 5 2 2 5
M  V30 6 3 3 5
M  V30 7 2 3 6
M  V30 8 1 3 11
M  V30 9 1 4 9
M  V30 10 1 5 10
M  V30 11 1 6 12
M  V30 END BOND
M  V30 END CTAB
M  END
>  <ID>
393
$$$$
Structure_394
Score 	 8.0, smilesprid 	smiles	 smilestrue 	smiles	 similartanimoto 	0	 similardice 	0

   12   11  0  0  0  0            999 V3000
M  V30 BEGIN CTAB
M  V30 COUNTS 12 11 0 0 0
M  V30 BEGIN ATOM
M  V30 1 C -1.7578 -0.7812 0.0000 0
M  V30 2 C -0.5859 0.1953 0.0000 0
M  V30 3 C 1.7578 0.1953 0.0000 0
M  V30 4 N -0.7812 1.3672 0.0000 0
M  V30 5 N 0.3906 -0.5859 0.0000 0
M  V30 6 N 2.7344 -0.5859 0.0000 0
M  V30 7 O -3.1250 -0.3906 0.0000 0
M  V30 8 H -1.5625 -1.9531 0.0000 0
M  V30 9 H -1.5625 1.7578 0.0000 0
M  V30 10 H 0.5859 -1.7578 0.0000 0
M  V30 11 H 1.7578 1.1719 0.0000 0
M  V30 12 H 3.5156 0.1953 0.0000 0
M  V30 END ATOM
M  V30 BEGIN BOND
M  V30 1 1 1 2
M  V30 2 2 1 7
M  V30 3 1 1 8
M  V30 4 3 2 4
M  V30 5 2 2 5
M  V30 6 3 3 5
M  V30 7 2 3 6
M  V30 8 1 3 11
M  V30 9 1 4 9
M  V30 10 1 5 10
M  V30 11 1 6 12
M  V30 END BOND
M  V30 END CTAB
M  END
>  <ID>
394
$$$$
Structure_395
Score 	 10.0, smilesprid 	smiles	 smilestrue 	smiles	 similartanimoto 	0	 similardice 	0

   12   11  0  0  0  0            999 V3000
M  V30 BEGIN CTAB
M  V30 COUNTS 12 11 0 0 0
M  V30 BEGIN ATOM
M  V30 1 C -1.7578 -0.7812 0.0000 0
M  V30 2 C -0.5859 0.1953 0.0000 0
M  V30 3 C 1.7578 0.1953 0.0000 0
M  V30 4 N -0.7812 1.3672 0.0000 0
M  V30 5 N 0.3906 -0.5859 0.0000 0
M  V30 6 N 2.7344 -0.5859 0.0000 0
M  V30 7 O -3.1250 -0.3906 0.0000 0
M  V30 8 H -1.5625 -1.9531 0.0000 0
M  V30 9 H -1.5625 1.7578 0.0000 0
M  V30 10 H 0.5859 -1.7578 0.0000 0
M  V30 11 H 1.7578 1.1719 0.0000 0
M  V30 12 H 3.5156 0.1953 0.0000 0
M  V30 END ATOM
M  V30 BEGIN BOND
M  V30 1 2 1 2
M  V30 2 2 1 7
M  V30 3 1 1 8
M  V30 4 3 2 4
M  V30 5 2 2 5
M  V30 6 3 3 5
M  V30 7 2 3 6
M  V30 8 1 3 11
M  V30 9 1 4 9
M  V30 10 1 5 10
M  V30 11 1 6 12
M  V30 END BOND
M  V30 END CTAB
M  END
>  <ID>
395
$$$$
Structure_396
Score 	 12.0, smilesprid 	smiles	 smilestrue 	smiles	 similartanimoto 	0	 similardice 	0

   12   11  0  0  0  0            999 V3000
M  V30 BEGIN CTAB
M  V30 COUNTS 12 11 0 0 0
M  V30 BEGIN ATOM
M  V30 1 C -1.7578 -0.7812 0.0000 0
M  V30 2 C -0.5859 0.1953 0.0000 0
M  V30 3 C 1.7578 0.1953 0.0000 0
M  V30 4 N -0.7812 1.3672 0.0000 0
M  V30 5 N 0.3906 -0.5859 0.0000 0
M  V30 6 N 2.7344 -0.5859 0.0000 0
M  V30 7 O -3.1250 -0.3906 0.0000 0
M  V30 8 H -1.5625 -1.9531 0.0000 0
M  V30 9 H -1.5625 1.7578 0.0000 0
M  V30 10 H 0.5859 -1.7578 0.0000 0
M  V30 11 H 1.7578 1.1719 0.0000 0
M  V30 12 H 3.5156 0.1953 0.0000 0
M  V30 END ATOM
M  V30 BEGIN BOND
M  V30 1 3 1 2
M  V30 2 2 1 7
M  V30 3 1 1 8
M  V30 4 3 2 4
M  V30 5 2 2 5
M  V30 6 3 3 5
M  V30 7 2 3 6
M  V30 8 1 3 11
M  V30 9 1 4 9
M  V30 10 1 5 10
M  V30 11 1 6 12
M  V30 END BOND
M  V30 END CTAB
M  END
>  <ID>
396
$$$$
Structure_397
Score 	 8.0, smilesprid 	smiles	 smilestrue 	smiles	 similartanimoto 	0	 similardice 	0

   12   11  0  0  0  0            999 V3000
M  V30 BEGIN CTAB
M  V30 COUNTS 12 11 0 0 0
M  V30 BEGIN ATOM
M  V30 1 C -1.7578 -0.7812 0.0000 0
M  V30 2 C -0.5859 0.1953 0.0000 0
M  V30 3 C 1.7578 0.1953 0.0000 0
M  V30 4 N -0.7812 1.3672 0.0000 0
M  V30 5 N 0.3906 -0.5859 0.0000 0
M  V30 6 N 2.7344 -0.5859 0.0000 0
M  V30 7 O -3.1250 -0.3906 0.0000 0
M  V30 8 H -1.5625 -1.9531 0.0000 0
M  V30 9 H -1.5625 1.7578 0.0000 0
M  V30 10 H 0.5859 -1.7578 0.0000 0
M  V30 11 H 1.7578 1.1719 0.0000 0
M  V30 12 H 3.5156 0.1953 0.0000 0
M  V30 END ATOM
M  V30 BEGIN BOND
M  V30 1 1 1 2
M  V30 2 2 1 7
M  V30 3 1 1 8
M  V30 4 1 2 4
M  V30 5 3 2 5
M  V30 6 3 3 5
M  V30 7 2 3 6
M  V30 8 1 3 11
M  V30 9 1 4 9
M  V30 10 1 5 10
M  V30 11 1 6 12
M  V30 END BOND
M  V30 END CTAB
M  END
>  <ID>
397
$$$$
Structure_398
Score 	 10.0, smilesprid 	smiles	 smilestrue 	smiles	 similartanimoto 	0	 similardice 	0

   12   11  0  0  0  0            999 V3000
M  V30 BEGIN CTAB
M  V30 COUNTS 12 11 0 0 0
M  V30 BEGIN ATOM
M  V30 1 C -1.7578 -0.7812 0.0000 0
M  V30 2 C -0.5859 0.1953 0.0000 0
M  V30 3 C 1.7578 0.1953 0.0000 0
M  V30 4 N -0.7812 1.3672 0.0000 0
M  V30 5 N 0.3906 -0.5859 0.0000 0
M  V30 6 N 2.7344 -0.5859 0.0000 0
M  V30 7 O -3.1250 -0.3906 0.0000 0
M  V30 8 H -1.5625 -1.9531 0.0000 0
M  V30 9 H -1.5625 1.7578 0.0000 0
M  V30 10 H 0.5859 -1.7578 0.0000 0
M  V30 11 H 1.7578 1.1719 0.0000 0
M  V30 12 H 3.5156 0.1953 0.0000 0
M  V30 END ATOM
M  V30 BEGIN BOND
M  V30 1 2 1 2
M  V30 2 2 1 7
M  V30 3 1 1 8
M  V30 4 1 2 4
M  V30 5 3 2 5
M  V30 6 3 3 5
M  V30 7 2 3 6
M  V30 8 1 3 11
M  V30 9 1 4 9
M  V30 10 1 5 10
M  V30 11 1 6 12
M  V30 END BOND
M  V30 END CTAB
M  END
>  <ID>
398
$$$$
Structure_399
Score 	 12.0, smilesprid 	smiles	 smilestrue 	smiles	 similartanimoto 	0	 similardice 	0

   12   11  0  0  0  0            999 V3000
M  V30 BEGIN CTAB
M  V30 COUNTS 12 11 0 0 0
M  V30 BEGIN ATOM
M  V30 1 C -1.7578 -0.7812 0.0000 0
M  V30 2 C -0.5859 0.1953 0.0000 0
M  V30 3 C 1.7578 0.1953 0.0000 0
M  V30 4 N -0.7812 1.3672 0.0000 0
M  V30 5 N 0.3906 -0.5859 0.0000 0
M  V30 6 N 2.7344 -0.5859 0.0000 0
M  V30 7 O -3.1250 -0.3906 0.0000 0
M  V30 8 H -1.5625 -1.9531 0.0000 0
M  V30 9 H -1.5625 1.7578 0.0000 0
M  V30 10 H 0.5859 -1.7578 0.0000 0
M  V30 11 H 1.7578 1.1719 0.0000 0
M  V30 12 H 3.5156 0.1953 0.0000 0
M  V30 END ATOM
M  V30 BEGIN BOND
M  V30 1 3 1 2
M  V30 2 2 1 7
M  V30 3 1 1 8
M  V30 4 1 2 4
M  V30 5 3 2 5
M  V30 6 3 3 5
M  V30 7 2 3 6
M  V30 8 1 3 11
M  V30 9 1 4 9
M  V30 10 1 5 10
M  V30 11 1 6 12
M  V30 END BOND
M  V30 END CTAB
M  END
>  <ID>
399
$$$$
Structure_400
Score 	 8.0, smilesprid 	smiles	 smilestrue 	smiles	 similartanimoto 	0	 similardice 	0

   12   11  0  0  0  0            999 V3000
M  V30 BEGIN CTAB
M  V30 COUNTS 12 11 0 0 0
M  V30 BEGIN ATOM
M  V30 1 C -1.7578 -0.7812 0.0000 0
M  V30 2 C -0.5859 0.1953 0.0000 0
M  V30 3 C 1.7578 0.1953 0.0000 0
M  V30 4 N -0.7812 1.3672 0.0000 0
M  V30 5 N 0.3906 -0.5859 0.0000 0
M  V30 6 N 2.7344 -0.5859 0.0000 0
M  V30 7 O -3.1250 -0.3906 0.0000 0
M  V30 8 H -1.5625 -1.9531 0.0000 0
M  V30 9 H -1.5625 1.7578 0.0000 0
M  V30 10 H 0.5859 -1.7578 0.0000 0
M  V30 11 H 1.7578 1.1719 0.0000 0
M  V30 12 H 3.5156 0.1953 0.0000 0
M  V30 END ATOM
M  V30 BEGIN BOND
M  V30 1 1 1 2
M  V30 2 2 1 7
M  V30 3 1 1 8
M  V30 4 2 2 4
M  V30 5 3 2 5
M  V30 6 3 3 5
M  V30 7 2 3 6
M  V30 8 1 3 11
M  V30 9 1 4 9
M  V30 10 1 5 10
M  V30 11 1 6 12
M  V30 END BOND
M  V30 END CTAB
M  END
>  <ID>
400
$$$$
Structure_401
Score 	 10.0, smilesprid 	smiles	 smilestrue 	smiles	 similartanimoto 	0	 similardice 	0

   12   11  0  0  0  0            999 V3000
M  V30 BEGIN CTAB
M  V30 COUNTS 12 11 0 0 0
M  V30 BEGIN ATOM
M  V30 1 C -1.7578 -0.7812 0.0000 0
M  V30 2 C -0.5859 0.1953 0.0000 0
M  V30 3 C 1.7578 0.1953 0.0000 0
M  V30 4 N -0.7812 1.3672 0.0000 0
M  V30 5 N 0.3906 -0.5859 0.0000 0
M  V30 6 N 2.7344 -0.5859 0.0000 0
M  V30 7 O -3.1250 -0.3906 0.0000 0
M  V30 8 H -1.5625 -1.9531 0.0000 0
M  V30 9 H -1.5625 1.7578 0.0000 0
M  V30 10 H 0.5859 -1.7578 0.0000 0
M  V30 11 H 1.7578 1.1719 0.0000 0
M  V30 12 H 3.5156 0.1953 0.0000 0
M  V30 END ATOM
M  V30 BEGIN BOND
M  V30 1 2 1 2
M  V30 2 2 1 7
M  V30 3 1 1 8
M  V30 4 2 2 4
M  V30 5 3 2 5
M  V30 6 3 3 5
M  V30 7 2 3 6
M  V30 8 1 3 11
M  V30 9 1 4 9
M  V30 10 1 5 10
M  V30 11 1 6 12
M  V30 END BOND
M  V30 END CTAB
M  END
>  <ID>
401
$$$$
Structure_402
Score 	 12.0, smilesprid 	smiles	 smilestrue 	smiles	 similartanimoto 	0	 similardice 	0

   12   11  0  0  0  0            999 V3000
M  V30 BEGIN CTAB
M  V30 COUNTS 12 11 0 0 0
M  V30 BEGIN ATOM
M  V30 1 C -1.7578 -0.7812 0.0000 0
M  V30 2 C -0.5859 0.1953 0.0000 0
M  V30 3 C 1.7578 0.1953 0.0000 0
M  V30 4 N -0.7812 1.3672 0.0000 0
M  V30 5 N 0.3906 -0.5859 0.0000 0
M  V30 6 N 2.7344 -0.5859 0.0000 0
M  V30 7 O -3.1250 -0.3906 0.0000 0
M  V30 8 H -1.5625 -1.9531 0.0000 0
M  V30 9 H -1.5625 1.7578 0.0000 0
M  V30 10 H 0.5859 -1.7578 0.0000 0
M  V30 11 H 1.7578 1.1719 0.0000 0
M  V30 12 H 3.5156 0.1953 0.0000 0
M  V30 END ATOM
M  V30 BEGIN BOND
M  V30 1 3 1 2
M  V30 2 2 1 7
M  V30 3 1 1 8
M  V30 4 2 2 4
M  V30 5 3 2 5
M  V30 6 3 3 5
M  V30 7 2 3 6
M  V30 8 1 3 11
M  V30 9 1 4 9
M  V30 10 1 5 10
M  V30 11 1 6 12
M  V30 END BOND
M  V30 END CTAB
M  END
>  <ID>
402
$$$$
Structure_403
Score 	 10.0, smilesprid 	smiles	 smilestrue 	smiles	 similartanimoto 	0	 similardice 	0

   12   11  0  0  0  0            999 V3000
M  V30 BEGIN CTAB
M  V30 COUNTS 12 11 0 0 0
M  V30 BEGIN ATOM
M  V30 1 C -1.7578 -0.7812 0.0000 0
M  V30 2 C -0.5859 0.1953 0.0000 0
M  V30 3 C 1.7578 0.1953 0.0000 0
M  V30 4 N -0.7812 1.3672 0.0000 0
M  V30 5 N 0.3906 -0.5859 0.0000 0
M  V30 6 N 2.7344 -0.5859 0.0000 0
M  V30 7 O -3.1250 -0.3906 0.0000 0
M  V30 8 H -1.5625 -1.9531 0.0000 0
M  V30 9 H -1.5625 1.7578 0.0000 0
M  V30 10 H 0.5859 -1.7578 0.0000 0
M  V30 11 H 1.7578 1.1719 0.0000 0
M  V30 12 H 3.5156 0.1953 0.0000 0
M  V30 END ATOM
M  V30 BEGIN BOND
M  V30 1 1 1 2
M  V30 2 2 1 7
M  V30 3 1 1 8
M  V30 4 3 2 4
M  V30 5 3 2 5
M  V30 6 3 3 5
M  V30 7 2 3 6
M  V30 8 1 3 11
M  V30 9 1 4 9
M  V30 10 1 5 10
M  V30 11 1 6 12
M  V30 END BOND
M  V30 END CTAB
M  END
>  <ID>
403
$$$$
Structure_404
Score 	 12.0, smilesprid 	smiles	 smilestrue 	smiles	 similartanimoto 	0	 similardice 	0

   12   11  0  0  0  0            999 V3000
M  V30 BEGIN CTAB
M  V30 COUNTS 12 11 0 0 0
M  V30 BEGIN ATOM
M  V30 1 C -1.7578 -0.7812 0.0000 0
M  V30 2 C -0.5859 0.1953 0.0000 0
M  V30 3 C 1.7578 0.1953 0.0000 0
M  V30 4 N -0.7812 1.3672 0.0000 0
M  V30 5 N 0.3906 -0.5859 0.0000 0
M  V30 6 N 2.7344 -0.5859 0.0000 0
M  V30 7 O -3.1250 -0.3906 0.0000 0
M  V30 8 H -1.5625 -1.9531 0.0000 0
M  V30 9 H -1.5625 1.7578 0.0000 0
M  V30 10 H 0.5859 -1.7578 0.0000 0
M  V30 11 H 1.7578 1.1719 0.0000 0
M  V30 12 H 3.5156 0.1953 0.0000 0
M  V30 END ATOM
M  V30 BEGIN BOND
M  V30 1 2 1 2
M  V30 2 2 1 7
M  V30 3 1 1 8
M  V30 4 3 2 4
M  V30 5 3 2 5
M  V30 6 3 3 5
M  V30 7 2 3 6
M  V30 8 1 3 11
M  V30 9 1 4 9
M  V30 10 1 5 10
M  V30 11 1 6 12
M  V30 END BOND
M  V30 END CTAB
M  END
>  <ID>
404
$$$$
Structure_405
Score 	 14.0, smilesprid 	smiles	 smilestrue 	smiles	 similartanimoto 	0	 similardice 	0

   12   11  0  0  0  0            999 V3000
M  V30 BEGIN CTAB
M  V30 COUNTS 12 11 0 0 0
M  V30 BEGIN ATOM
M  V30 1 C -1.7578 -0.7812 0.0000 0
M  V30 2 C -0.5859 0.1953 0.0000 0
M  V30 3 C 1.7578 0.1953 0.0000 0
M  V30 4 N -0.7812 1.3672 0.0000 0
M  V30 5 N 0.3906 -0.5859 0.0000 0
M  V30 6 N 2.7344 -0.5859 0.0000 0
M  V30 7 O -3.1250 -0.3906 0.0000 0
M  V30 8 H -1.5625 -1.9531 0.0000 0
M  V30 9 H -1.5625 1.7578 0.0000 0
M  V30 10 H 0.5859 -1.7578 0.0000 0
M  V30 11 H 1.7578 1.1719 0.0000 0
M  V30 12 H 3.5156 0.1953 0.0000 0
M  V30 END ATOM
M  V30 BEGIN BOND
M  V30 1 3 1 2
M  V30 2 2 1 7
M  V30 3 1 1 8
M  V30 4 3 2 4
M  V30 5 3 2 5
M  V30 6 3 3 5
M  V30 7 2 3 6
M  V30 8 1 3 11
M  V30 9 1 4 9
M  V30 10 1 5 10
M  V30 11 1 6 12
M  V30 END BOND
M  V30 END CTAB
M  END
>  <ID>
405
$$$$
Structure_406
Score 	 4.0, smilesprid 	smiles	 smilestrue 	smiles	 similartanimoto 	0	 similardice 	0

   12   11  0  0  0  0            999 V3000
M  V30 BEGIN CTAB
M  V30 COUNTS 12 11 0 0 0
M  V30 BEGIN ATOM
M  V30 1 C -1.7578 -0.7812 0.0000 0
M  V30 2 C -0.5859 0.1953 0.0000 0
M  V30 3 C 1.7578 0.1953 0.0000 0
M  V30 4 N -0.7812 1.3672 0.0000 0
M  V30 5 N 0.3906 -0.5859 0.0000 0
M  V30 6 N 2.7344 -0.5859 0.0000 0
M  V30 7 O -3.1250 -0.3906 0.0000 0
M  V30 8 H -1.5625 -1.9531 0.0000 0
M  V30 9 H -1.5625 1.7578 0.0000 0
M  V30 10 H 0.5859 -1.7578 0.0000 0
M  V30 11 H 1.7578 1.1719 0.0000 0
M  V30 12 H 3.5156 0.1953 0.0000 0
M  V30 END ATOM
M  V30 BEGIN BOND
M  V30 1 1 1 2
M  V30 2 2 1 7
M  V30 3 1 1 8
M  V30 4 1 2 4
M  V30 5 1 2 5
M  V30 6 1 3 5
M  V30 7 3 3 6
M  V30 8 1 3 11
M  V30 9 1 4 9
M  V30 10 1 5 10
M  V30 11 1 6 12
M  V30 END BOND
M  V30 END CTAB
M  END
>  <ID>
406
$$$$
Structure_407
Score 	 4.0, smilesprid 	smiles	 smilestrue 	smiles	 similartanimoto 	0	 similardice 	0

   12   11  0  0  0  0            999 V3000
M  V30 BEGIN CTAB
M  V30 COUNTS 12 11 0 0 0
M  V30 BEGIN ATOM
M  V30 1 C -1.7578 -0.7812 0.0000 0
M  V30 2 C -0.5859 0.1953 0.0000 0
M  V30 3 C 1.7578 0.1953 0.0000 0
M  V30 4 N -0.7812 1.3672 0.0000 0
M  V30 5 N 0.3906 -0.5859 0.0000 0
M  V30 6 N 2.7344 -0.5859 0.0000 0
M  V30 7 O -3.1250 -0.3906 0.0000 0
M  V30 8 H -1.5625 -1.9531 0.0000 0
M  V30 9 H -1.5625 1.7578 0.0000 0
M  V30 10 H 0.5859 -1.7578 0.0000 0
M  V30 11 H 1.7578 1.1719 0.0000 0
M  V30 12 H 3.5156 0.1953 0.0000 0
M  V30 END ATOM
M  V30 BEGIN BOND
M  V30 1 2 1 2
M  V30 2 2 1 7
M  V30 3 1 1 8
M  V30 4 1 2 4
M  V30 5 1 2 5
M  V30 6 1 3 5
M  V30 7 3 3 6
M  V30 8 1 3 11
M  V30 9 1 4 9
M  V30 10 1 5 10
M  V30 11 1 6 12
M  V30 END BOND
M  V30 END CTAB
M  END
>  <ID>
407
$$$$
Structure_408
Score 	 6.0, smilesprid 	smiles	 smilestrue 	smiles	 similartanimoto 	0	 similardice 	0

   12   11  0  0  0  0            999 V3000
M  V30 BEGIN CTAB
M  V30 COUNTS 12 11 0 0 0
M  V30 BEGIN ATOM
M  V30 1 C -1.7578 -0.7812 0.0000 0
M  V30 2 C -0.5859 0.1953 0.0000 0
M  V30 3 C 1.7578 0.1953 0.0000 0
M  V30 4 N -0.7812 1.3672 0.0000 0
M  V30 5 N 0.3906 -0.5859 0.0000 0
M  V30 6 N 2.7344 -0.5859 0.0000 0
M  V30 7 O -3.1250 -0.3906 0.0000 0
M  V30 8 H -1.5625 -1.9531 0.0000 0
M  V30 9 H -1.5625 1.7578 0.0000 0
M  V30 10 H 0.5859 -1.7578 0.0000 0
M  V30 11 H 1.7578 1.1719 0.0000 0
M  V30 12 H 3.5156 0.1953 0.0000 0
M  V30 END ATOM
M  V30 BEGIN BOND
M  V30 1 3 1 2
M  V30 2 2 1 7
M  V30 3 1 1 8
M  V30 4 1 2 4
M  V30 5 1 2 5
M  V30 6 1 3 5
M  V30 7 3 3 6
M  V30 8 1 3 11
M  V30 9 1 4 9
M  V30 10 1 5 10
M  V30 11 1 6 12
M  V30 END BOND
M  V30 END CTAB
M  END
>  <ID>
408
$$$$
Structure_409
Score 	 2.0, smilesprid 	smiles	 smilestrue 	smiles	 similartanimoto 	0	 similardice 	0

   12   11  0  0  0  0            999 V3000
M  V30 BEGIN CTAB
M  V30 COUNTS 12 11 0 0 0
M  V30 BEGIN ATOM
M  V30 1 C -1.7578 -0.7812 0.0000 0
M  V30 2 C -0.5859 0.1953 0.0000 0
M  V30 3 C 1.7578 0.1953 0.0000 0
M  V30 4 N -0.7812 1.3672 0.0000 0
M  V30 5 N 0.3906 -0.5859 0.0000 0
M  V30 6 N 2.7344 -0.5859 0.0000 0
M  V30 7 O -3.1250 -0.3906 0.0000 0
M  V30 8 H -1.5625 -1.9531 0.0000 0
M  V30 9 H -1.5625 1.7578 0.0000 0
M  V30 10 H 0.5859 -1.7578 0.0000 0
M  V30 11 H 1.7578 1.1719 0.0000 0
M  V30 12 H 3.5156 0.1953 0.0000 0
M  V30 END ATOM
M  V30 BEGIN BOND
M  V30 1 1 1 2
M  V30 2 2 1 7
M  V30 3 1 1 8
M  V30 4 2 2 4
M  V30 5 1 2 5
M  V30 6 1 3 5
M  V30 7 3 3 6
M  V30 8 1 3 11
M  V30 9 1 4 9
M  V30 10 1 5 10
M  V30 11 1 6 12
M  V30 END BOND
M  V30 END CTAB
M  END
>  <ID>
409
$$$$
Structure_410
Score 	 4.0, smilesprid 	smiles	 smilestrue 	smiles	 similartanimoto 	0	 similardice 	0

   12   11  0  0  0  0            999 V3000
M  V30 BEGIN CTAB
M  V30 COUNTS 12 11 0 0 0
M  V30 BEGIN ATOM
M  V30 1 C -1.7578 -0.7812 0.0000 0
M  V30 2 C -0.5859 0.1953 0.0000 0
M  V30 3 C 1.7578 0.1953 0.0000 0
M  V30 4 N -0.7812 1.3672 0.0000 0
M  V30 5 N 0.3906 -0.5859 0.0000 0
M  V30 6 N 2.7344 -0.5859 0.0000 0
M  V30 7 O -3.1250 -0.3906 0.0000 0
M  V30 8 H -1.5625 -1.9531 0.0000 0
M  V30 9 H -1.5625 1.7578 0.0000 0
M  V30 10 H 0.5859 -1.7578 0.0000 0
M  V30 11 H 1.7578 1.1719 0.0000 0
M  V30 12 H 3.5156 0.1953 0.0000 0
M  V30 END ATOM
M  V30 BEGIN BOND
M  V30 1 2 1 2
M  V30 2 2 1 7
M  V30 3 1 1 8
M  V30 4 2 2 4
M  V30 5 1 2 5
M  V30 6 1 3 5
M  V30 7 3 3 6
M  V30 8 1 3 11
M  V30 9 1 4 9
M  V30 10 1 5 10
M  V30 11 1 6 12
M  V30 END BOND
M  V30 END CTAB
M  END
>  <ID>
410
$$$$
Structure_411
Score 	 6.0, smilesprid 	smiles	 smilestrue 	smiles	 similartanimoto 	0	 similardice 	0

   12   11  0  0  0  0            999 V3000
M  V30 BEGIN CTAB
M  V30 COUNTS 12 11 0 0 0
M  V30 BEGIN ATOM
M  V30 1 C -1.7578 -0.7812 0.0000 0
M  V30 2 C -0.5859 0.1953 0.0000 0
M  V30 3 C 1.7578 0.1953 0.0000 0
M  V30 4 N -0.7812 1.3672 0.0000 0
M  V30 5 N 0.3906 -0.5859 0.0000 0
M  V30 6 N 2.7344 -0.5859 0.0000 0
M  V30 7 O -3.1250 -0.3906 0.0000 0
M  V30 8 H -1.5625 -1.9531 0.0000 0
M  V30 9 H -1.5625 1.7578 0.0000 0
M  V30 10 H 0.5859 -1.7578 0.0000 0
M  V30 11 H 1.7578 1.1719 0.0000 0
M  V30 12 H 3.5156 0.1953 0.0000 0
M  V30 END ATOM
M  V30 BEGIN BOND
M  V30 1 3 1 2
M  V30 2 2 1 7
M  V30 3 1 1 8
M  V30 4 2 2 4
M  V30 5 1 2 5
M  V30 6 1 3 5
M  V30 7 3 3 6
M  V30 8 1 3 11
M  V30 9 1 4 9
M  V30 10 1 5 10
M  V30 11 1 6 12
M  V30 END BOND
M  V30 END CTAB
M  END
>  <ID>
411
$$$$
Structure_412
Score 	 4.0, smilesprid 	smiles	 smilestrue 	smiles	 similartanimoto 	0	 similardice 	0

   12   11  0  0  0  0            999 V3000
M  V30 BEGIN CTAB
M  V30 COUNTS 12 11 0 0 0
M  V30 BEGIN ATOM
M  V30 1 C -1.7578 -0.7812 0.0000 0
M  V30 2 C -0.5859 0.1953 0.0000 0
M  V30 3 C 1.7578 0.1953 0.0000 0
M  V30 4 N -0.7812 1.3672 0.0000 0
M  V30 5 N 0.3906 -0.5859 0.0000 0
M  V30 6 N 2.7344 -0.5859 0.0000 0
M  V30 7 O -3.1250 -0.3906 0.0000 0
M  V30 8 H -1.5625 -1.9531 0.0000 0
M  V30 9 H -1.5625 1.7578 0.0000 0
M  V30 10 H 0.5859 -1.7578 0.0000 0
M  V30 11 H 1.7578 1.1719 0.0000 0
M  V30 12 H 3.5156 0.1953 0.0000 0
M  V30 END ATOM
M  V30 BEGIN BOND
M  V30 1 1 1 2
M  V30 2 2 1 7
M  V30 3 1 1 8
M  V30 4 3 2 4
M  V30 5 1 2 5
M  V30 6 1 3 5
M  V30 7 3 3 6
M  V30 8 1 3 11
M  V30 9 1 4 9
M  V30 10 1 5 10
M  V30 11 1 6 12
M  V30 END BOND
M  V30 END CTAB
M  END
>  <ID>
412
$$$$
Structure_413
Score 	 6.0, smilesprid 	smiles	 smilestrue 	smiles	 similartanimoto 	0	 similardice 	0

   12   11  0  0  0  0            999 V3000
M  V30 BEGIN CTAB
M  V30 COUNTS 12 11 0 0 0
M  V30 BEGIN ATOM
M  V30 1 C -1.7578 -0.7812 0.0000 0
M  V30 2 C -0.5859 0.1953 0.0000 0
M  V30 3 C 1.7578 0.1953 0.0000 0
M  V30 4 N -0.7812 1.3672 0.0000 0
M  V30 5 N 0.3906 -0.5859 0.0000 0
M  V30 6 N 2.7344 -0.5859 0.0000 0
M  V30 7 O -3.1250 -0.3906 0.0000 0
M  V30 8 H -1.5625 -1.9531 0.0000 0
M  V30 9 H -1.5625 1.7578 0.0000 0
M  V30 10 H 0.5859 -1.7578 0.0000 0
M  V30 11 H 1.7578 1.1719 0.0000 0
M  V30 12 H 3.5156 0.1953 0.0000 0
M  V30 END ATOM
M  V30 BEGIN BOND
M  V30 1 2 1 2
M  V30 2 2 1 7
M  V30 3 1 1 8
M  V30 4 3 2 4
M  V30 5 1 2 5
M  V30 6 1 3 5
M  V30 7 3 3 6
M  V30 8 1 3 11
M  V30 9 1 4 9
M  V30 10 1 5 10
M  V30 11 1 6 12
M  V30 END BOND
M  V30 END CTAB
M  END
>  <ID>
413
$$$$
Structure_414
Score 	 8.0, smilesprid 	smiles	 smilestrue 	smiles	 similartanimoto 	0	 similardice 	0

   12   11  0  0  0  0            999 V3000
M  V30 BEGIN CTAB
M  V30 COUNTS 12 11 0 0 0
M  V30 BEGIN ATOM
M  V30 1 C -1.7578 -0.7812 0.0000 0
M  V30 2 C -0.5859 0.1953 0.0000 0
M  V30 3 C 1.7578 0.1953 0.0000 0
M  V30 4 N -0.7812 1.3672 0.0000 0
M  V30 5 N 0.3906 -0.5859 0.0000 0
M  V30 6 N 2.7344 -0.5859 0.0000 0
M  V30 7 O -3.1250 -0.3906 0.0000 0
M  V30 8 H -1.5625 -1.9531 0.0000 0
M  V30 9 H -1.5625 1.7578 0.0000 0
M  V30 10 H 0.5859 -1.7578 0.0000 0
M  V30 11 H 1.7578 1.1719 0.0000 0
M  V30 12 H 3.5156 0.1953 0.0000 0
M  V30 END ATOM
M  V30 BEGIN BOND
M  V30 1 3 1 2
M  V30 2 2 1 7
M  V30 3 1 1 8
M  V30 4 3 2 4
M  V30 5 1 2 5
M  V30 6 1 3 5
M  V30 7 3 3 6
M  V30 8 1 3 11
M  V30 9 1 4 9
M  V30 10 1 5 10
M  V30 11 1 6 12
M  V30 END BOND
M  V30 END CTAB
M  END
>  <ID>
414
$$$$
Structure_415
Score 	 4.0, smilesprid 	smiles	 smilestrue 	smiles	 similartanimoto 	0	 similardice 	0

   12   11  0  0  0  0            999 V3000
M  V30 BEGIN CTAB
M  V30 COUNTS 12 11 0 0 0
M  V30 BEGIN ATOM
M  V30 1 C -1.7578 -0.7812 0.0000 0
M  V30 2 C -0.5859 0.1953 0.0000 0
M  V30 3 C 1.7578 0.1953 0.0000 0
M  V30 4 N -0.7812 1.3672 0.0000 0
M  V30 5 N 0.3906 -0.5859 0.0000 0
M  V30 6 N 2.7344 -0.5859 0.0000 0
M  V30 7 O -3.1250 -0.3906 0.0000 0
M  V30 8 H -1.5625 -1.9531 0.0000 0
M  V30 9 H -1.5625 1.7578 0.0000 0
M  V30 10 H 0.5859 -1.7578 0.0000 0
M  V30 11 H 1.7578 1.1719 0.0000 0
M  V30 12 H 3.5156 0.1953 0.0000 0
M  V30 END ATOM
M  V30 BEGIN BOND
M  V30 1 1 1 2
M  V30 2 2 1 7
M  V30 3 1 1 8
M  V30 4 1 2 4
M  V30 5 2 2 5
M  V30 6 1 3 5
M  V30 7 3 3 6
M  V30 8 1 3 11
M  V30 9 1 4 9
M  V30 10 1 5 10
M  V30 11 1 6 12
M  V30 END BOND
M  V30 END CTAB
M  END
>  <ID>
415
$$$$
Structure_416
Score 	 6.0, smilesprid 	smiles	 smilestrue 	smiles	 similartanimoto 	0	 similardice 	0

   12   11  0  0  0  0            999 V3000
M  V30 BEGIN CTAB
M  V30 COUNTS 12 11 0 0 0
M  V30 BEGIN ATOM
M  V30 1 C -1.7578 -0.7812 0.0000 0
M  V30 2 C -0.5859 0.1953 0.0000 0
M  V30 3 C 1.7578 0.1953 0.0000 0
M  V30 4 N -0.7812 1.3672 0.0000 0
M  V30 5 N 0.3906 -0.5859 0.0000 0
M  V30 6 N 2.7344 -0.5859 0.0000 0
M  V30 7 O -3.1250 -0.3906 0.0000 0
M  V30 8 H -1.5625 -1.9531 0.0000 0
M  V30 9 H -1.5625 1.7578 0.0000 0
M  V30 10 H 0.5859 -1.7578 0.0000 0
M  V30 11 H 1.7578 1.1719 0.0000 0
M  V30 12 H 3.5156 0.1953 0.0000 0
M  V30 END ATOM
M  V30 BEGIN BOND
M  V30 1 2 1 2
M  V30 2 2 1 7
M  V30 3 1 1 8
M  V30 4 1 2 4
M  V30 5 2 2 5
M  V30 6 1 3 5
M  V30 7 3 3 6
M  V30 8 1 3 11
M  V30 9 1 4 9
M  V30 10 1 5 10
M  V30 11 1 6 12
M  V30 END BOND
M  V30 END CTAB
M  END
>  <ID>
416
$$$$
Structure_417
Score 	 8.0, smilesprid 	smiles	 smilestrue 	smiles	 similartanimoto 	0	 similardice 	0

   12   11  0  0  0  0            999 V3000
M  V30 BEGIN CTAB
M  V30 COUNTS 12 11 0 0 0
M  V30 BEGIN ATOM
M  V30 1 C -1.7578 -0.7812 0.0000 0
M  V30 2 C -0.5859 0.1953 0.0000 0
M  V30 3 C 1.7578 0.1953 0.0000 0
M  V30 4 N -0.7812 1.3672 0.0000 0
M  V30 5 N 0.3906 -0.5859 0.0000 0
M  V30 6 N 2.7344 -0.5859 0.0000 0
M  V30 7 O -3.1250 -0.3906 0.0000 0
M  V30 8 H -1.5625 -1.9531 0.0000 0
M  V30 9 H -1.5625 1.7578 0.0000 0
M  V30 10 H 0.5859 -1.7578 0.0000 0
M  V30 11 H 1.7578 1.1719 0.0000 0
M  V30 12 H 3.5156 0.1953 0.0000 0
M  V30 END ATOM
M  V30 BEGIN BOND
M  V30 1 3 1 2
M  V30 2 2 1 7
M  V30 3 1 1 8
M  V30 4 1 2 4
M  V30 5 2 2 5
M  V30 6 1 3 5
M  V30 7 3 3 6
M  V30 8 1 3 11
M  V30 9 1 4 9
M  V30 10 1 5 10
M  V30 11 1 6 12
M  V30 END BOND
M  V30 END CTAB
M  END
>  <ID>
417
$$$$
Structure_418
Score 	 4.0, smilesprid 	smiles	 smilestrue 	smiles	 similartanimoto 	0	 similardice 	0

   12   11  0  0  0  0            999 V3000
M  V30 BEGIN CTAB
M  V30 COUNTS 12 11 0 0 0
M  V30 BEGIN ATOM
M  V30 1 C -1.7578 -0.7812 0.0000 0
M  V30 2 C -0.5859 0.1953 0.0000 0
M  V30 3 C 1.7578 0.1953 0.0000 0
M  V30 4 N -0.7812 1.3672 0.0000 0
M  V30 5 N 0.3906 -0.5859 0.0000 0
M  V30 6 N 2.7344 -0.5859 0.0000 0
M  V30 7 O -3.1250 -0.3906 0.0000 0
M  V30 8 H -1.5625 -1.9531 0.0000 0
M  V30 9 H -1.5625 1.7578 0.0000 0
M  V30 10 H 0.5859 -1.7578 0.0000 0
M  V30 11 H 1.7578 1.1719 0.0000 0
M  V30 12 H 3.5156 0.1953 0.0000 0
M  V30 END ATOM
M  V30 BEGIN BOND
M  V30 1 1 1 2
M  V30 2 2 1 7
M  V30 3 1 1 8
M  V30 4 2 2 4
M  V30 5 2 2 5
M  V30 6 1 3 5
M  V30 7 3 3 6
M  V30 8 1 3 11
M  V30 9 1 4 9
M  V30 10 1 5 10
M  V30 11 1 6 12
M  V30 END BOND
M  V30 END CTAB
M  END
>  <ID>
418
$$$$
Structure_419
Score 	 6.0, smilesprid 	smiles	 smilestrue 	smiles	 similartanimoto 	0	 similardice 	0

   12   11  0  0  0  0            999 V3000
M  V30 BEGIN CTAB
M  V30 COUNTS 12 11 0 0 0
M  V30 BEGIN ATOM
M  V30 1 C -1.7578 -0.7812 0.0000 0
M  V30 2 C -0.5859 0.1953 0.0000 0
M  V30 3 C 1.7578 0.1953 0.0000 0
M  V30 4 N -0.7812 1.3672 0.0000 0
M  V30 5 N 0.3906 -0.5859 0.0000 0
M  V30 6 N 2.7344 -0.5859 0.0000 0
M  V30 7 O -3.1250 -0.3906 0.0000 0
M  V30 8 H -1.5625 -1.9531 0.0000 0
M  V30 9 H -1.5625 1.7578 0.0000 0
M  V30 10 H 0.5859 -1.7578 0.0000 0
M  V30 11 H 1.7578 1.1719 0.0000 0
M  V30 12 H 3.5156 0.1953 0.0000 0
M  V30 END ATOM
M  V30 BEGIN BOND
M  V30 1 2 1 2
M  V30 2 2 1 7
M  V30 3 1 1 8
M  V30 4 2 2 4
M  V30 5 2 2 5
M  V30 6 1 3 5
M  V30 7 3 3 6
M  V30 8 1 3 11
M  V30 9 1 4 9
M  V30 10 1 5 10
M  V30 11 1 6 12
M  V30 END BOND
M  V30 END CTAB
M  END
>  <ID>
419
$$$$
Structure_420
Score 	 8.0, smilesprid 	smiles	 smilestrue 	smiles	 similartanimoto 	0	 similardice 	0

   12   11  0  0  0  0            999 V3000
M  V30 BEGIN CTAB
M  V30 COUNTS 12 11 0 0 0
M  V30 BEGIN ATOM
M  V30 1 C -1.7578 -0.7812 0.0000 0
M  V30 2 C -0.5859 0.1953 0.0000 0
M  V30 3 C 1.7578 0.1953 0.0000 0
M  V30 4 N -0.7812 1.3672 0.0000 0
M  V30 5 N 0.3906 -0.5859 0.0000 0
M  V30 6 N 2.7344 -0.5859 0.0000 0
M  V30 7 O -3.1250 -0.3906 0.0000 0
M  V30 8 H -1.5625 -1.9531 0.0000 0
M  V30 9 H -1.5625 1.7578 0.0000 0
M  V30 10 H 0.5859 -1.7578 0.0000 0
M  V30 11 H 1.7578 1.1719 0.0000 0
M  V30 12 H 3.5156 0.1953 0.0000 0
M  V30 END ATOM
M  V30 BEGIN BOND
M  V30 1 3 1 2
M  V30 2 2 1 7
M  V30 3 1 1 8
M  V30 4 2 2 4
M  V30 5 2 2 5
M  V30 6 1 3 5
M  V30 7 3 3 6
M  V30 8 1 3 11
M  V30 9 1 4 9
M  V30 10 1 5 10
M  V30 11 1 6 12
M  V30 END BOND
M  V30 END CTAB
M  END
>  <ID>
420
$$$$
Structure_421
Score 	 6.0, smilesprid 	smiles	 smilestrue 	smiles	 similartanimoto 	0	 similardice 	0

   12   11  0  0  0  0            999 V3000
M  V30 BEGIN CTAB
M  V30 COUNTS 12 11 0 0 0
M  V30 BEGIN ATOM
M  V30 1 C -1.7578 -0.7812 0.0000 0
M  V30 2 C -0.5859 0.1953 0.0000 0
M  V30 3 C 1.7578 0.1953 0.0000 0
M  V30 4 N -0.7812 1.3672 0.0000 0
M  V30 5 N 0.3906 -0.5859 0.0000 0
M  V30 6 N 2.7344 -0.5859 0.0000 0
M  V30 7 O -3.1250 -0.3906 0.0000 0
M  V30 8 H -1.5625 -1.9531 0.0000 0
M  V30 9 H -1.5625 1.7578 0.0000 0
M  V30 10 H 0.5859 -1.7578 0.0000 0
M  V30 11 H 1.7578 1.1719 0.0000 0
M  V30 12 H 3.5156 0.1953 0.0000 0
M  V30 END ATOM
M  V30 BEGIN BOND
M  V30 1 1 1 2
M  V30 2 2 1 7
M  V30 3 1 1 8
M  V30 4 3 2 4
M  V30 5 2 2 5
M  V30 6 1 3 5
M  V30 7 3 3 6
M  V30 8 1 3 11
M  V30 9 1 4 9
M  V30 10 1 5 10
M  V30 11 1 6 12
M  V30 END BOND
M  V30 END CTAB
M  END
>  <ID>
421
$$$$
Structure_422
Score 	 8.0, smilesprid 	smiles	 smilestrue 	smiles	 similartanimoto 	0	 similardice 	0

   12   11  0  0  0  0            999 V3000
M  V30 BEGIN CTAB
M  V30 COUNTS 12 11 0 0 0
M  V30 BEGIN ATOM
M  V30 1 C -1.7578 -0.7812 0.0000 0
M  V30 2 C -0.5859 0.1953 0.0000 0
M  V30 3 C 1.7578 0.1953 0.0000 0
M  V30 4 N -0.7812 1.3672 0.0000 0
M  V30 5 N 0.3906 -0.5859 0.0000 0
M  V30 6 N 2.7344 -0.5859 0.0000 0
M  V30 7 O -3.1250 -0.3906 0.0000 0
M  V30 8 H -1.5625 -1.9531 0.0000 0
M  V30 9 H -1.5625 1.7578 0.0000 0
M  V30 10 H 0.5859 -1.7578 0.0000 0
M  V30 11 H 1.7578 1.1719 0.0000 0
M  V30 12 H 3.5156 0.1953 0.0000 0
M  V30 END ATOM
M  V30 BEGIN BOND
M  V30 1 2 1 2
M  V30 2 2 1 7
M  V30 3 1 1 8
M  V30 4 3 2 4
M  V30 5 2 2 5
M  V30 6 1 3 5
M  V30 7 3 3 6
M  V30 8 1 3 11
M  V30 9 1 4 9
M  V30 10 1 5 10
M  V30 11 1 6 12
M  V30 END BOND
M  V30 END CTAB
M  END
>  <ID>
422
$$$$
Structure_423
Score 	 10.0, smilesprid 	smiles	 smilestrue 	smiles	 similartanimoto 	0	 similardice 	0

   12   11  0  0  0  0            999 V3000
M  V30 BEGIN CTAB
M  V30 COUNTS 12 11 0 0 0
M  V30 BEGIN ATOM
M  V30 1 C -1.7578 -0.7812 0.0000 0
M  V30 2 C -0.5859 0.1953 0.0000 0
M  V30 3 C 1.7578 0.1953 0.0000 0
M  V30 4 N -0.7812 1.3672 0.0000 0
M  V30 5 N 0.3906 -0.5859 0.0000 0
M  V30 6 N 2.7344 -0.5859 0.0000 0
M  V30 7 O -3.1250 -0.3906 0.0000 0
M  V30 8 H -1.5625 -1.9531 0.0000 0
M  V30 9 H -1.5625 1.7578 0.0000 0
M  V30 10 H 0.5859 -1.7578 0.0000 0
M  V30 11 H 1.7578 1.1719 0.0000 0
M  V30 12 H 3.5156 0.1953 0.0000 0
M  V30 END ATOM
M  V30 BEGIN BOND
M  V30 1 3 1 2
M  V30 2 2 1 7
M  V30 3 1 1 8
M  V30 4 3 2 4
M  V30 5 2 2 5
M  V30 6 1 3 5
M  V30 7 3 3 6
M  V30 8 1 3 11
M  V30 9 1 4 9
M  V30 10 1 5 10
M  V30 11 1 6 12
M  V30 END BOND
M  V30 END CTAB
M  END
>  <ID>
423
$$$$
Structure_424
Score 	 6.0, smilesprid 	smiles	 smilestrue 	smiles	 similartanimoto 	0	 similardice 	0

   12   11  0  0  0  0            999 V3000
M  V30 BEGIN CTAB
M  V30 COUNTS 12 11 0 0 0
M  V30 BEGIN ATOM
M  V30 1 C -1.7578 -0.7812 0.0000 0
M  V30 2 C -0.5859 0.1953 0.0000 0
M  V30 3 C 1.7578 0.1953 0.0000 0
M  V30 4 N -0.7812 1.3672 0.0000 0
M  V30 5 N 0.3906 -0.5859 0.0000 0
M  V30 6 N 2.7344 -0.5859 0.0000 0
M  V30 7 O -3.1250 -0.3906 0.0000 0
M  V30 8 H -1.5625 -1.9531 0.0000 0
M  V30 9 H -1.5625 1.7578 0.0000 0
M  V30 10 H 0.5859 -1.7578 0.0000 0
M  V30 11 H 1.7578 1.1719 0.0000 0
M  V30 12 H 3.5156 0.1953 0.0000 0
M  V30 END ATOM
M  V30 BEGIN BOND
M  V30 1 1 1 2
M  V30 2 2 1 7
M  V30 3 1 1 8
M  V30 4 1 2 4
M  V30 5 3 2 5
M  V30 6 1 3 5
M  V30 7 3 3 6
M  V30 8 1 3 11
M  V30 9 1 4 9
M  V30 10 1 5 10
M  V30 11 1 6 12
M  V30 END BOND
M  V30 END CTAB
M  END
>  <ID>
424
$$$$
Structure_425
Score 	 8.0, smilesprid 	smiles	 smilestrue 	smiles	 similartanimoto 	0	 similardice 	0

   12   11  0  0  0  0            999 V3000
M  V30 BEGIN CTAB
M  V30 COUNTS 12 11 0 0 0
M  V30 BEGIN ATOM
M  V30 1 C -1.7578 -0.7812 0.0000 0
M  V30 2 C -0.5859 0.1953 0.0000 0
M  V30 3 C 1.7578 0.1953 0.0000 0
M  V30 4 N -0.7812 1.3672 0.0000 0
M  V30 5 N 0.3906 -0.5859 0.0000 0
M  V30 6 N 2.7344 -0.5859 0.0000 0
M  V30 7 O -3.1250 -0.3906 0.0000 0
M  V30 8 H -1.5625 -1.9531 0.0000 0
M  V30 9 H -1.5625 1.7578 0.0000 0
M  V30 10 H 0.5859 -1.7578 0.0000 0
M  V30 11 H 1.7578 1.1719 0.0000 0
M  V30 12 H 3.5156 0.1953 0.0000 0
M  V30 END ATOM
M  V30 BEGIN BOND
M  V30 1 2 1 2
M  V30 2 2 1 7
M  V30 3 1 1 8
M  V30 4 1 2 4
M  V30 5 3 2 5
M  V30 6 1 3 5
M  V30 7 3 3 6
M  V30 8 1 3 11
M  V30 9 1 4 9
M  V30 10 1 5 10
M  V30 11 1 6 12
M  V30 END BOND
M  V30 END CTAB
M  END
>  <ID>
425
$$$$
Structure_426
Score 	 10.0, smilesprid 	smiles	 smilestrue 	smiles	 similartanimoto 	0	 similardice 	0

   12   11  0  0  0  0            999 V3000
M  V30 BEGIN CTAB
M  V30 COUNTS 12 11 0 0 0
M  V30 BEGIN ATOM
M  V30 1 C -1.7578 -0.7812 0.0000 0
M  V30 2 C -0.5859 0.1953 0.0000 0
M  V30 3 C 1.7578 0.1953 0.0000 0
M  V30 4 N -0.7812 1.3672 0.0000 0
M  V30 5 N 0.3906 -0.5859 0.0000 0
M  V30 6 N 2.7344 -0.5859 0.0000 0
M  V30 7 O -3.1250 -0.3906 0.0000 0
M  V30 8 H -1.5625 -1.9531 0.0000 0
M  V30 9 H -1.5625 1.7578 0.0000 0
M  V30 10 H 0.5859 -1.7578 0.0000 0
M  V30 11 H 1.7578 1.1719 0.0000 0
M  V30 12 H 3.5156 0.1953 0.0000 0
M  V30 END ATOM
M  V30 BEGIN BOND
M  V30 1 3 1 2
M  V30 2 2 1 7
M  V30 3 1 1 8
M  V30 4 1 2 4
M  V30 5 3 2 5
M  V30 6 1 3 5
M  V30 7 3 3 6
M  V30 8 1 3 11
M  V30 9 1 4 9
M  V30 10 1 5 10
M  V30 11 1 6 12
M  V30 END BOND
M  V30 END CTAB
M  END
>  <ID>
426
$$$$
Structure_427
Score 	 6.0, smilesprid 	smiles	 smilestrue 	smiles	 similartanimoto 	0	 similardice 	0

   12   11  0  0  0  0            999 V3000
M  V30 BEGIN CTAB
M  V30 COUNTS 12 11 0 0 0
M  V30 BEGIN ATOM
M  V30 1 C -1.7578 -0.7812 0.0000 0
M  V30 2 C -0.5859 0.1953 0.0000 0
M  V30 3 C 1.7578 0.1953 0.0000 0
M  V30 4 N -0.7812 1.3672 0.0000 0
M  V30 5 N 0.3906 -0.5859 0.0000 0
M  V30 6 N 2.7344 -0.5859 0.0000 0
M  V30 7 O -3.1250 -0.3906 0.0000 0
M  V30 8 H -1.5625 -1.9531 0.0000 0
M  V30 9 H -1.5625 1.7578 0.0000 0
M  V30 10 H 0.5859 -1.7578 0.0000 0
M  V30 11 H 1.7578 1.1719 0.0000 0
M  V30 12 H 3.5156 0.1953 0.0000 0
M  V30 END ATOM
M  V30 BEGIN BOND
M  V30 1 1 1 2
M  V30 2 2 1 7
M  V30 3 1 1 8
M  V30 4 2 2 4
M  V30 5 3 2 5
M  V30 6 1 3 5
M  V30 7 3 3 6
M  V30 8 1 3 11
M  V30 9 1 4 9
M  V30 10 1 5 10
M  V30 11 1 6 12
M  V30 END BOND
M  V30 END CTAB
M  END
>  <ID>
427
$$$$
Structure_428
Score 	 8.0, smilesprid 	smiles	 smilestrue 	smiles	 similartanimoto 	0	 similardice 	0

   12   11  0  0  0  0            999 V3000
M  V30 BEGIN CTAB
M  V30 COUNTS 12 11 0 0 0
M  V30 BEGIN ATOM
M  V30 1 C -1.7578 -0.7812 0.0000 0
M  V30 2 C -0.5859 0.1953 0.0000 0
M  V30 3 C 1.7578 0.1953 0.0000 0
M  V30 4 N -0.7812 1.3672 0.0000 0
M  V30 5 N 0.3906 -0.5859 0.0000 0
M  V30 6 N 2.7344 -0.5859 0.0000 0
M  V30 7 O -3.1250 -0.3906 0.0000 0
M  V30 8 H -1.5625 -1.9531 0.0000 0
M  V30 9 H -1.5625 1.7578 0.0000 0
M  V30 10 H 0.5859 -1.7578 0.0000 0
M  V30 11 H 1.7578 1.1719 0.0000 0
M  V30 12 H 3.5156 0.1953 0.0000 0
M  V30 END ATOM
M  V30 BEGIN BOND
M  V30 1 2 1 2
M  V30 2 2 1 7
M  V30 3 1 1 8
M  V30 4 2 2 4
M  V30 5 3 2 5
M  V30 6 1 3 5
M  V30 7 3 3 6
M  V30 8 1 3 11
M  V30 9 1 4 9
M  V30 10 1 5 10
M  V30 11 1 6 12
M  V30 END BOND
M  V30 END CTAB
M  END
>  <ID>
428
$$$$
Structure_429
Score 	 10.0, smilesprid 	smiles	 smilestrue 	smiles	 similartanimoto 	0	 similardice 	0

   12   11  0  0  0  0            999 V3000
M  V30 BEGIN CTAB
M  V30 COUNTS 12 11 0 0 0
M  V30 BEGIN ATOM
M  V30 1 C -1.7578 -0.7812 0.0000 0
M  V30 2 C -0.5859 0.1953 0.0000 0
M  V30 3 C 1.7578 0.1953 0.0000 0
M  V30 4 N -0.7812 1.3672 0.0000 0
M  V30 5 N 0.3906 -0.5859 0.0000 0
M  V30 6 N 2.7344 -0.5859 0.0000 0
M  V30 7 O -3.1250 -0.3906 0.0000 0
M  V30 8 H -1.5625 -1.9531 0.0000 0
M  V30 9 H -1.5625 1.7578 0.0000 0
M  V30 10 H 0.5859 -1.7578 0.0000 0
M  V30 11 H 1.7578 1.1719 0.0000 0
M  V30 12 H 3.5156 0.1953 0.0000 0
M  V30 END ATOM
M  V30 BEGIN BOND
M  V30 1 3 1 2
M  V30 2 2 1 7
M  V30 3 1 1 8
M  V30 4 2 2 4
M  V30 5 3 2 5
M  V30 6 1 3 5
M  V30 7 3 3 6
M  V30 8 1 3 11
M  V30 9 1 4 9
M  V30 10 1 5 10
M  V30 11 1 6 12
M  V30 END BOND
M  V30 END CTAB
M  END
>  <ID>
429
$$$$
Structure_430
Score 	 8.0, smilesprid 	smiles	 smilestrue 	smiles	 similartanimoto 	0	 similardice 	0

   12   11  0  0  0  0            999 V3000
M  V30 BEGIN CTAB
M  V30 COUNTS 12 11 0 0 0
M  V30 BEGIN ATOM
M  V30 1 C -1.7578 -0.7812 0.0000 0
M  V30 2 C -0.5859 0.1953 0.0000 0
M  V30 3 C 1.7578 0.1953 0.0000 0
M  V30 4 N -0.7812 1.3672 0.0000 0
M  V30 5 N 0.3906 -0.5859 0.0000 0
M  V30 6 N 2.7344 -0.5859 0.0000 0
M  V30 7 O -3.1250 -0.3906 0.0000 0
M  V30 8 H -1.5625 -1.9531 0.0000 0
M  V30 9 H -1.5625 1.7578 0.0000 0
M  V30 10 H 0.5859 -1.7578 0.0000 0
M  V30 11 H 1.7578 1.1719 0.0000 0
M  V30 12 H 3.5156 0.1953 0.0000 0
M  V30 END ATOM
M  V30 BEGIN BOND
M  V30 1 1 1 2
M  V30 2 2 1 7
M  V30 3 1 1 8
M  V30 4 3 2 4
M  V30 5 3 2 5
M  V30 6 1 3 5
M  V30 7 3 3 6
M  V30 8 1 3 11
M  V30 9 1 4 9
M  V30 10 1 5 10
M  V30 11 1 6 12
M  V30 END BOND
M  V30 END CTAB
M  END
>  <ID>
430
$$$$
Structure_431
Score 	 10.0, smilesprid 	smiles	 smilestrue 	smiles	 similartanimoto 	0	 similardice 	0

   12   11  0  0  0  0            999 V3000
M  V30 BEGIN CTAB
M  V30 COUNTS 12 11 0 0 0
M  V30 BEGIN ATOM
M  V30 1 C -1.7578 -0.7812 0.0000 0
M  V30 2 C -0.5859 0.1953 0.0000 0
M  V30 3 C 1.7578 0.1953 0.0000 0
M  V30 4 N -0.7812 1.3672 0.0000 0
M  V30 5 N 0.3906 -0.5859 0.0000 0
M  V30 6 N 2.7344 -0.5859 0.0000 0
M  V30 7 O -3.1250 -0.3906 0.0000 0
M  V30 8 H -1.5625 -1.9531 0.0000 0
M  V30 9 H -1.5625 1.7578 0.0000 0
M  V30 10 H 0.5859 -1.7578 0.0000 0
M  V30 11 H 1.7578 1.1719 0.0000 0
M  V30 12 H 3.5156 0.1953 0.0000 0
M  V30 END ATOM
M  V30 BEGIN BOND
M  V30 1 2 1 2
M  V30 2 2 1 7
M  V30 3 1 1 8
M  V30 4 3 2 4
M  V30 5 3 2 5
M  V30 6 1 3 5
M  V30 7 3 3 6
M  V30 8 1 3 11
M  V30 9 1 4 9
M  V30 10 1 5 10
M  V30 11 1 6 12
M  V30 END BOND
M  V30 END CTAB
M  END
>  <ID>
431
$$$$
Structure_432
Score 	 12.0, smilesprid 	smiles	 smilestrue 	smiles	 similartanimoto 	0	 similardice 	0

   12   11  0  0  0  0            999 V3000
M  V30 BEGIN CTAB
M  V30 COUNTS 12 11 0 0 0
M  V30 BEGIN ATOM
M  V30 1 C -1.7578 -0.7812 0.0000 0
M  V30 2 C -0.5859 0.1953 0.0000 0
M  V30 3 C 1.7578 0.1953 0.0000 0
M  V30 4 N -0.7812 1.3672 0.0000 0
M  V30 5 N 0.3906 -0.5859 0.0000 0
M  V30 6 N 2.7344 -0.5859 0.0000 0
M  V30 7 O -3.1250 -0.3906 0.0000 0
M  V30 8 H -1.5625 -1.9531 0.0000 0
M  V30 9 H -1.5625 1.7578 0.0000 0
M  V30 10 H 0.5859 -1.7578 0.0000 0
M  V30 11 H 1.7578 1.1719 0.0000 0
M  V30 12 H 3.5156 0.1953 0.0000 0
M  V30 END ATOM
M  V30 BEGIN BOND
M  V30 1 3 1 2
M  V30 2 2 1 7
M  V30 3 1 1 8
M  V30 4 3 2 4
M  V30 5 3 2 5
M  V30 6 1 3 5
M  V30 7 3 3 6
M  V30 8 1 3 11
M  V30 9 1 4 9
M  V30 10 1 5 10
M  V30 11 1 6 12
M  V30 END BOND
M  V30 END CTAB
M  END
>  <ID>
432
$$$$
Structure_433
Score 	 6.0, smilesprid 	smiles	 smilestrue 	smiles	 similartanimoto 	0	 similardice 	0

   12   11  0  0  0  0            999 V3000
M  V30 BEGIN CTAB
M  V30 COUNTS 12 11 0 0 0
M  V30 BEGIN ATOM
M  V30 1 C -1.7578 -0.7812 0.0000 0
M  V30 2 C -0.5859 0.1953 0.0000 0
M  V30 3 C 1.7578 0.1953 0.0000 0
M  V30 4 N -0.7812 1.3672 0.0000 0
M  V30 5 N 0.3906 -0.5859 0.0000 0
M  V30 6 N 2.7344 -0.5859 0.0000 0
M  V30 7 O -3.1250 -0.3906 0.0000 0
M  V30 8 H -1.5625 -1.9531 0.0000 0
M  V30 9 H -1.5625 1.7578 0.0000 0
M  V30 10 H 0.5859 -1.7578 0.0000 0
M  V30 11 H 1.7578 1.1719 0.0000 0
M  V30 12 H 3.5156 0.1953 0.0000 0
M  V30 END ATOM
M  V30 BEGIN BOND
M  V30 1 1 1 2
M  V30 2 2 1 7
M  V30 3 1 1 8
M  V30 4 1 2 4
M  V30 5 1 2 5
M  V30 6 2 3 5
M  V30 7 3 3 6
M  V30 8 1 3 11
M  V30 9 1 4 9
M  V30 10 1 5 10
M  V30 11 1 6 12
M  V30 END BOND
M  V30 END CTAB
M  END
>  <ID>
433
$$$$
Structure_434
Score 	 6.0, smilesprid 	smiles	 smilestrue 	smiles	 similartanimoto 	0	 similardice 	0

   12   11  0  0  0  0            999 V3000
M  V30 BEGIN CTAB
M  V30 COUNTS 12 11 0 0 0
M  V30 BEGIN ATOM
M  V30 1 C -1.7578 -0.7812 0.0000 0
M  V30 2 C -0.5859 0.1953 0.0000 0
M  V30 3 C 1.7578 0.1953 0.0000 0
M  V30 4 N -0.7812 1.3672 0.0000 0
M  V30 5 N 0.3906 -0.5859 0.0000 0
M  V30 6 N 2.7344 -0.5859 0.0000 0
M  V30 7 O -3.1250 -0.3906 0.0000 0
M  V30 8 H -1.5625 -1.9531 0.0000 0
M  V30 9 H -1.5625 1.7578 0.0000 0
M  V30 10 H 0.5859 -1.7578 0.0000 0
M  V30 11 H 1.7578 1.1719 0.0000 0
M  V30 12 H 3.5156 0.1953 0.0000 0
M  V30 END ATOM
M  V30 BEGIN BOND
M  V30 1 2 1 2
M  V30 2 2 1 7
M  V30 3 1 1 8
M  V30 4 1 2 4
M  V30 5 1 2 5
M  V30 6 2 3 5
M  V30 7 3 3 6
M  V30 8 1 3 11
M  V30 9 1 4 9
M  V30 10 1 5 10
M  V30 11 1 6 12
M  V30 END BOND
M  V30 END CTAB
M  END
>  <ID>
434
$$$$
Structure_435
Score 	 8.0, smilesprid 	smiles	 smilestrue 	smiles	 similartanimoto 	0	 similardice 	0

   12   11  0  0  0  0            999 V3000
M  V30 BEGIN CTAB
M  V30 COUNTS 12 11 0 0 0
M  V30 BEGIN ATOM
M  V30 1 C -1.7578 -0.7812 0.0000 0
M  V30 2 C -0.5859 0.1953 0.0000 0
M  V30 3 C 1.7578 0.1953 0.0000 0
M  V30 4 N -0.7812 1.3672 0.0000 0
M  V30 5 N 0.3906 -0.5859 0.0000 0
M  V30 6 N 2.7344 -0.5859 0.0000 0
M  V30 7 O -3.1250 -0.3906 0.0000 0
M  V30 8 H -1.5625 -1.9531 0.0000 0
M  V30 9 H -1.5625 1.7578 0.0000 0
M  V30 10 H 0.5859 -1.7578 0.0000 0
M  V30 11 H 1.7578 1.1719 0.0000 0
M  V30 12 H 3.5156 0.1953 0.0000 0
M  V30 END ATOM
M  V30 BEGIN BOND
M  V30 1 3 1 2
M  V30 2 2 1 7
M  V30 3 1 1 8
M  V30 4 1 2 4
M  V30 5 1 2 5
M  V30 6 2 3 5
M  V30 7 3 3 6
M  V30 8 1 3 11
M  V30 9 1 4 9
M  V30 10 1 5 10
M  V30 11 1 6 12
M  V30 END BOND
M  V30 END CTAB
M  END
>  <ID>
435
$$$$
Structure_436
Score 	 4.0, smilesprid 	smiles	 smilestrue 	smiles	 similartanimoto 	0	 similardice 	0

   12   11  0  0  0  0            999 V3000
M  V30 BEGIN CTAB
M  V30 COUNTS 12 11 0 0 0
M  V30 BEGIN ATOM
M  V30 1 C -1.7578 -0.7812 0.0000 0
M  V30 2 C -0.5859 0.1953 0.0000 0
M  V30 3 C 1.7578 0.1953 0.0000 0
M  V30 4 N -0.7812 1.3672 0.0000 0
M  V30 5 N 0.3906 -0.5859 0.0000 0
M  V30 6 N 2.7344 -0.5859 0.0000 0
M  V30 7 O -3.1250 -0.3906 0.0000 0
M  V30 8 H -1.5625 -1.9531 0.0000 0
M  V30 9 H -1.5625 1.7578 0.0000 0
M  V30 10 H 0.5859 -1.7578 0.0000 0
M  V30 11 H 1.7578 1.1719 0.0000 0
M  V30 12 H 3.5156 0.1953 0.0000 0
M  V30 END ATOM
M  V30 BEGIN BOND
M  V30 1 1 1 2
M  V30 2 2 1 7
M  V30 3 1 1 8
M  V30 4 2 2 4
M  V30 5 1 2 5
M  V30 6 2 3 5
M  V30 7 3 3 6
M  V30 8 1 3 11
M  V30 9 1 4 9
M  V30 10 1 5 10
M  V30 11 1 6 12
M  V30 END BOND
M  V30 END CTAB
M  END
>  <ID>
436
$$$$
Structure_437
Score 	 6.0, smilesprid 	smiles	 smilestrue 	smiles	 similartanimoto 	0	 similardice 	0

   12   11  0  0  0  0            999 V3000
M  V30 BEGIN CTAB
M  V30 COUNTS 12 11 0 0 0
M  V30 BEGIN ATOM
M  V30 1 C -1.7578 -0.7812 0.0000 0
M  V30 2 C -0.5859 0.1953 0.0000 0
M  V30 3 C 1.7578 0.1953 0.0000 0
M  V30 4 N -0.7812 1.3672 0.0000 0
M  V30 5 N 0.3906 -0.5859 0.0000 0
M  V30 6 N 2.7344 -0.5859 0.0000 0
M  V30 7 O -3.1250 -0.3906 0.0000 0
M  V30 8 H -1.5625 -1.9531 0.0000 0
M  V30 9 H -1.5625 1.7578 0.0000 0
M  V30 10 H 0.5859 -1.7578 0.0000 0
M  V30 11 H 1.7578 1.1719 0.0000 0
M  V30 12 H 3.5156 0.1953 0.0000 0
M  V30 END ATOM
M  V30 BEGIN BOND
M  V30 1 2 1 2
M  V30 2 2 1 7
M  V30 3 1 1 8
M  V30 4 2 2 4
M  V30 5 1 2 5
M  V30 6 2 3 5
M  V30 7 3 3 6
M  V30 8 1 3 11
M  V30 9 1 4 9
M  V30 10 1 5 10
M  V30 11 1 6 12
M  V30 END BOND
M  V30 END CTAB
M  END
>  <ID>
437
$$$$
Structure_438
Score 	 8.0, smilesprid 	smiles	 smilestrue 	smiles	 similartanimoto 	0	 similardice 	0

   12   11  0  0  0  0            999 V3000
M  V30 BEGIN CTAB
M  V30 COUNTS 12 11 0 0 0
M  V30 BEGIN ATOM
M  V30 1 C -1.7578 -0.7812 0.0000 0
M  V30 2 C -0.5859 0.1953 0.0000 0
M  V30 3 C 1.7578 0.1953 0.0000 0
M  V30 4 N -0.7812 1.3672 0.0000 0
M  V30 5 N 0.3906 -0.5859 0.0000 0
M  V30 6 N 2.7344 -0.5859 0.0000 0
M  V30 7 O -3.1250 -0.3906 0.0000 0
M  V30 8 H -1.5625 -1.9531 0.0000 0
M  V30 9 H -1.5625 1.7578 0.0000 0
M  V30 10 H 0.5859 -1.7578 0.0000 0
M  V30 11 H 1.7578 1.1719 0.0000 0
M  V30 12 H 3.5156 0.1953 0.0000 0
M  V30 END ATOM
M  V30 BEGIN BOND
M  V30 1 3 1 2
M  V30 2 2 1 7
M  V30 3 1 1 8
M  V30 4 2 2 4
M  V30 5 1 2 5
M  V30 6 2 3 5
M  V30 7 3 3 6
M  V30 8 1 3 11
M  V30 9 1 4 9
M  V30 10 1 5 10
M  V30 11 1 6 12
M  V30 END BOND
M  V30 END CTAB
M  END
>  <ID>
438
$$$$
Structure_439
Score 	 6.0, smilesprid 	smiles	 smilestrue 	smiles	 similartanimoto 	0	 similardice 	0

   12   11  0  0  0  0            999 V3000
M  V30 BEGIN CTAB
M  V30 COUNTS 12 11 0 0 0
M  V30 BEGIN ATOM
M  V30 1 C -1.7578 -0.7812 0.0000 0
M  V30 2 C -0.5859 0.1953 0.0000 0
M  V30 3 C 1.7578 0.1953 0.0000 0
M  V30 4 N -0.7812 1.3672 0.0000 0
M  V30 5 N 0.3906 -0.5859 0.0000 0
M  V30 6 N 2.7344 -0.5859 0.0000 0
M  V30 7 O -3.1250 -0.3906 0.0000 0
M  V30 8 H -1.5625 -1.9531 0.0000 0
M  V30 9 H -1.5625 1.7578 0.0000 0
M  V30 10 H 0.5859 -1.7578 0.0000 0
M  V30 11 H 1.7578 1.1719 0.0000 0
M  V30 12 H 3.5156 0.1953 0.0000 0
M  V30 END ATOM
M  V30 BEGIN BOND
M  V30 1 1 1 2
M  V30 2 2 1 7
M  V30 3 1 1 8
M  V30 4 3 2 4
M  V30 5 1 2 5
M  V30 6 2 3 5
M  V30 7 3 3 6
M  V30 8 1 3 11
M  V30 9 1 4 9
M  V30 10 1 5 10
M  V30 11 1 6 12
M  V30 END BOND
M  V30 END CTAB
M  END
>  <ID>
439
$$$$
Structure_440
Score 	 8.0, smilesprid 	smiles	 smilestrue 	smiles	 similartanimoto 	0	 similardice 	0

   12   11  0  0  0  0            999 V3000
M  V30 BEGIN CTAB
M  V30 COUNTS 12 11 0 0 0
M  V30 BEGIN ATOM
M  V30 1 C -1.7578 -0.7812 0.0000 0
M  V30 2 C -0.5859 0.1953 0.0000 0
M  V30 3 C 1.7578 0.1953 0.0000 0
M  V30 4 N -0.7812 1.3672 0.0000 0
M  V30 5 N 0.3906 -0.5859 0.0000 0
M  V30 6 N 2.7344 -0.5859 0.0000 0
M  V30 7 O -3.1250 -0.3906 0.0000 0
M  V30 8 H -1.5625 -1.9531 0.0000 0
M  V30 9 H -1.5625 1.7578 0.0000 0
M  V30 10 H 0.5859 -1.7578 0.0000 0
M  V30 11 H 1.7578 1.1719 0.0000 0
M  V30 12 H 3.5156 0.1953 0.0000 0
M  V30 END ATOM
M  V30 BEGIN BOND
M  V30 1 2 1 2
M  V30 2 2 1 7
M  V30 3 1 1 8
M  V30 4 3 2 4
M  V30 5 1 2 5
M  V30 6 2 3 5
M  V30 7 3 3 6
M  V30 8 1 3 11
M  V30 9 1 4 9
M  V30 10 1 5 10
M  V30 11 1 6 12
M  V30 END BOND
M  V30 END CTAB
M  END
>  <ID>
440
$$$$
Structure_441
Score 	 10.0, smilesprid 	smiles	 smilestrue 	smiles	 similartanimoto 	0	 similardice 	0

   12   11  0  0  0  0            999 V3000
M  V30 BEGIN CTAB
M  V30 COUNTS 12 11 0 0 0
M  V30 BEGIN ATOM
M  V30 1 C -1.7578 -0.7812 0.0000 0
M  V30 2 C -0.5859 0.1953 0.0000 0
M  V30 3 C 1.7578 0.1953 0.0000 0
M  V30 4 N -0.7812 1.3672 0.0000 0
M  V30 5 N 0.3906 -0.5859 0.0000 0
M  V30 6 N 2.7344 -0.5859 0.0000 0
M  V30 7 O -3.1250 -0.3906 0.0000 0
M  V30 8 H -1.5625 -1.9531 0.0000 0
M  V30 9 H -1.5625 1.7578 0.0000 0
M  V30 10 H 0.5859 -1.7578 0.0000 0
M  V30 11 H 1.7578 1.1719 0.0000 0
M  V30 12 H 3.5156 0.1953 0.0000 0
M  V30 END ATOM
M  V30 BEGIN BOND
M  V30 1 3 1 2
M  V30 2 2 1 7
M  V30 3 1 1 8
M  V30 4 3 2 4
M  V30 5 1 2 5
M  V30 6 2 3 5
M  V30 7 3 3 6
M  V30 8 1 3 11
M  V30 9 1 4 9
M  V30 10 1 5 10
M  V30 11 1 6 12
M  V30 END BOND
M  V30 END CTAB
M  END
>  <ID>
441
$$$$
Structure_442
Score 	 6.0, smilesprid 	smiles	 smilestrue 	smiles	 similartanimoto 	0	 similardice 	0

   12   11  0  0  0  0            999 V3000
M  V30 BEGIN CTAB
M  V30 COUNTS 12 11 0 0 0
M  V30 BEGIN ATOM
M  V30 1 C -1.7578 -0.7812 0.0000 0
M  V30 2 C -0.5859 0.1953 0.0000 0
M  V30 3 C 1.7578 0.1953 0.0000 0
M  V30 4 N -0.7812 1.3672 0.0000 0
M  V30 5 N 0.3906 -0.5859 0.0000 0
M  V30 6 N 2.7344 -0.5859 0.0000 0
M  V30 7 O -3.1250 -0.3906 0.0000 0
M  V30 8 H -1.5625 -1.9531 0.0000 0
M  V30 9 H -1.5625 1.7578 0.0000 0
M  V30 10 H 0.5859 -1.7578 0.0000 0
M  V30 11 H 1.7578 1.1719 0.0000 0
M  V30 12 H 3.5156 0.1953 0.0000 0
M  V30 END ATOM
M  V30 BEGIN BOND
M  V30 1 1 1 2
M  V30 2 2 1 7
M  V30 3 1 1 8
M  V30 4 1 2 4
M  V30 5 2 2 5
M  V30 6 2 3 5
M  V30 7 3 3 6
M  V30 8 1 3 11
M  V30 9 1 4 9
M  V30 10 1 5 10
M  V30 11 1 6 12
M  V30 END BOND
M  V30 END CTAB
M  END
>  <ID>
442
$$$$
Structure_443
Score 	 8.0, smilesprid 	smiles	 smilestrue 	smiles	 similartanimoto 	0	 similardice 	0

   12   11  0  0  0  0            999 V3000
M  V30 BEGIN CTAB
M  V30 COUNTS 12 11 0 0 0
M  V30 BEGIN ATOM
M  V30 1 C -1.7578 -0.7812 0.0000 0
M  V30 2 C -0.5859 0.1953 0.0000 0
M  V30 3 C 1.7578 0.1953 0.0000 0
M  V30 4 N -0.7812 1.3672 0.0000 0
M  V30 5 N 0.3906 -0.5859 0.0000 0
M  V30 6 N 2.7344 -0.5859 0.0000 0
M  V30 7 O -3.1250 -0.3906 0.0000 0
M  V30 8 H -1.5625 -1.9531 0.0000 0
M  V30 9 H -1.5625 1.7578 0.0000 0
M  V30 10 H 0.5859 -1.7578 0.0000 0
M  V30 11 H 1.7578 1.1719 0.0000 0
M  V30 12 H 3.5156 0.1953 0.0000 0
M  V30 END ATOM
M  V30 BEGIN BOND
M  V30 1 2 1 2
M  V30 2 2 1 7
M  V30 3 1 1 8
M  V30 4 1 2 4
M  V30 5 2 2 5
M  V30 6 2 3 5
M  V30 7 3 3 6
M  V30 8 1 3 11
M  V30 9 1 4 9
M  V30 10 1 5 10
M  V30 11 1 6 12
M  V30 END BOND
M  V30 END CTAB
M  END
>  <ID>
443
$$$$
Structure_444
Score 	 10.0, smilesprid 	smiles	 smilestrue 	smiles	 similartanimoto 	0	 similardice 	0

   12   11  0  0  0  0            999 V3000
M  V30 BEGIN CTAB
M  V30 COUNTS 12 11 0 0 0
M  V30 BEGIN ATOM
M  V30 1 C -1.7578 -0.7812 0.0000 0
M  V30 2 C -0.5859 0.1953 0.0000 0
M  V30 3 C 1.7578 0.1953 0.0000 0
M  V30 4 N -0.7812 1.3672 0.0000 0
M  V30 5 N 0.3906 -0.5859 0.0000 0
M  V30 6 N 2.7344 -0.5859 0.0000 0
M  V30 7 O -3.1250 -0.3906 0.0000 0
M  V30 8 H -1.5625 -1.9531 0.0000 0
M  V30 9 H -1.5625 1.7578 0.0000 0
M  V30 10 H 0.5859 -1.7578 0.0000 0
M  V30 11 H 1.7578 1.1719 0.0000 0
M  V30 12 H 3.5156 0.1953 0.0000 0
M  V30 END ATOM
M  V30 BEGIN BOND
M  V30 1 3 1 2
M  V30 2 2 1 7
M  V30 3 1 1 8
M  V30 4 1 2 4
M  V30 5 2 2 5
M  V30 6 2 3 5
M  V30 7 3 3 6
M  V30 8 1 3 11
M  V30 9 1 4 9
M  V30 10 1 5 10
M  V30 11 1 6 12
M  V30 END BOND
M  V30 END CTAB
M  END
>  <ID>
444
$$$$
Structure_445
Score 	 6.0, smilesprid 	smiles	 smilestrue 	smiles	 similartanimoto 	0	 similardice 	0

   12   11  0  0  0  0            999 V3000
M  V30 BEGIN CTAB
M  V30 COUNTS 12 11 0 0 0
M  V30 BEGIN ATOM
M  V30 1 C -1.7578 -0.7812 0.0000 0
M  V30 2 C -0.5859 0.1953 0.0000 0
M  V30 3 C 1.7578 0.1953 0.0000 0
M  V30 4 N -0.7812 1.3672 0.0000 0
M  V30 5 N 0.3906 -0.5859 0.0000 0
M  V30 6 N 2.7344 -0.5859 0.0000 0
M  V30 7 O -3.1250 -0.3906 0.0000 0
M  V30 8 H -1.5625 -1.9531 0.0000 0
M  V30 9 H -1.5625 1.7578 0.0000 0
M  V30 10 H 0.5859 -1.7578 0.0000 0
M  V30 11 H 1.7578 1.1719 0.0000 0
M  V30 12 H 3.5156 0.1953 0.0000 0
M  V30 END ATOM
M  V30 BEGIN BOND
M  V30 1 1 1 2
M  V30 2 2 1 7
M  V30 3 1 1 8
M  V30 4 2 2 4
M  V30 5 2 2 5
M  V30 6 2 3 5
M  V30 7 3 3 6
M  V30 8 1 3 11
M  V30 9 1 4 9
M  V30 10 1 5 10
M  V30 11 1 6 12
M  V30 END BOND
M  V30 END CTAB
M  END
>  <ID>
445
$$$$
Structure_446
Score 	 8.0, smilesprid 	smiles	 smilestrue 	smiles	 similartanimoto 	0	 similardice 	0

   12   11  0  0  0  0            999 V3000
M  V30 BEGIN CTAB
M  V30 COUNTS 12 11 0 0 0
M  V30 BEGIN ATOM
M  V30 1 C -1.7578 -0.7812 0.0000 0
M  V30 2 C -0.5859 0.1953 0.0000 0
M  V30 3 C 1.7578 0.1953 0.0000 0
M  V30 4 N -0.7812 1.3672 0.0000 0
M  V30 5 N 0.3906 -0.5859 0.0000 0
M  V30 6 N 2.7344 -0.5859 0.0000 0
M  V30 7 O -3.1250 -0.3906 0.0000 0
M  V30 8 H -1.5625 -1.9531 0.0000 0
M  V30 9 H -1.5625 1.7578 0.0000 0
M  V30 10 H 0.5859 -1.7578 0.0000 0
M  V30 11 H 1.7578 1.1719 0.0000 0
M  V30 12 H 3.5156 0.1953 0.0000 0
M  V30 END ATOM
M  V30 BEGIN BOND
M  V30 1 2 1 2
M  V30 2 2 1 7
M  V30 3 1 1 8
M  V30 4 2 2 4
M  V30 5 2 2 5
M  V30 6 2 3 5
M  V30 7 3 3 6
M  V30 8 1 3 11
M  V30 9 1 4 9
M  V30 10 1 5 10
M  V30 11 1 6 12
M  V30 END BOND
M  V30 END CTAB
M  END
>  <ID>
446
$$$$
Structure_447
Score 	 10.0, smilesprid 	smiles	 smilestrue 	smiles	 similartanimoto 	0	 similardice 	0

   12   11  0  0  0  0            999 V3000
M  V30 BEGIN CTAB
M  V30 COUNTS 12 11 0 0 0
M  V30 BEGIN ATOM
M  V30 1 C -1.7578 -0.7812 0.0000 0
M  V30 2 C -0.5859 0.1953 0.0000 0
M  V30 3 C 1.7578 0.1953 0.0000 0
M  V30 4 N -0.7812 1.3672 0.0000 0
M  V30 5 N 0.3906 -0.5859 0.0000 0
M  V30 6 N 2.7344 -0.5859 0.0000 0
M  V30 7 O -3.1250 -0.3906 0.0000 0
M  V30 8 H -1.5625 -1.9531 0.0000 0
M  V30 9 H -1.5625 1.7578 0.0000 0
M  V30 10 H 0.5859 -1.7578 0.0000 0
M  V30 11 H 1.7578 1.1719 0.0000 0
M  V30 12 H 3.5156 0.1953 0.0000 0
M  V30 END ATOM
M  V30 BEGIN BOND
M  V30 1 3 1 2
M  V30 2 2 1 7
M  V30 3 1 1 8
M  V30 4 2 2 4
M  V30 5 2 2 5
M  V30 6 2 3 5
M  V30 7 3 3 6
M  V30 8 1 3 11
M  V30 9 1 4 9
M  V30 10 1 5 10
M  V30 11 1 6 12
M  V30 END BOND
M  V30 END CTAB
M  END
>  <ID>
447
$$$$
Structure_448
Score 	 8.0, smilesprid 	smiles	 smilestrue 	smiles	 similartanimoto 	0	 similardice 	0

   12   11  0  0  0  0            999 V3000
M  V30 BEGIN CTAB
M  V30 COUNTS 12 11 0 0 0
M  V30 BEGIN ATOM
M  V30 1 C -1.7578 -0.7812 0.0000 0
M  V30 2 C -0.5859 0.1953 0.0000 0
M  V30 3 C 1.7578 0.1953 0.0000 0
M  V30 4 N -0.7812 1.3672 0.0000 0
M  V30 5 N 0.3906 -0.5859 0.0000 0
M  V30 6 N 2.7344 -0.5859 0.0000 0
M  V30 7 O -3.1250 -0.3906 0.0000 0
M  V30 8 H -1.5625 -1.9531 0.0000 0
M  V30 9 H -1.5625 1.7578 0.0000 0
M  V30 10 H 0.5859 -1.7578 0.0000 0
M  V30 11 H 1.7578 1.1719 0.0000 0
M  V30 12 H 3.5156 0.1953 0.0000 0
M  V30 END ATOM
M  V30 BEGIN BOND
M  V30 1 1 1 2
M  V30 2 2 1 7
M  V30 3 1 1 8
M  V30 4 3 2 4
M  V30 5 2 2 5
M  V30 6 2 3 5
M  V30 7 3 3 6
M  V30 8 1 3 11
M  V30 9 1 4 9
M  V30 10 1 5 10
M  V30 11 1 6 12
M  V30 END BOND
M  V30 END CTAB
M  END
>  <ID>
448
$$$$
Structure_449
Score 	 10.0, smilesprid 	smiles	 smilestrue 	smiles	 similartanimoto 	0	 similardice 	0

   12   11  0  0  0  0            999 V3000
M  V30 BEGIN CTAB
M  V30 COUNTS 12 11 0 0 0
M  V30 BEGIN ATOM
M  V30 1 C -1.7578 -0.7812 0.0000 0
M  V30 2 C -0.5859 0.1953 0.0000 0
M  V30 3 C 1.7578 0.1953 0.0000 0
M  V30 4 N -0.7812 1.3672 0.0000 0
M  V30 5 N 0.3906 -0.5859 0.0000 0
M  V30 6 N 2.7344 -0.5859 0.0000 0
M  V30 7 O -3.1250 -0.3906 0.0000 0
M  V30 8 H -1.5625 -1.9531 0.0000 0
M  V30 9 H -1.5625 1.7578 0.0000 0
M  V30 10 H 0.5859 -1.7578 0.0000 0
M  V30 11 H 1.7578 1.1719 0.0000 0
M  V30 12 H 3.5156 0.1953 0.0000 0
M  V30 END ATOM
M  V30 BEGIN BOND
M  V30 1 2 1 2
M  V30 2 2 1 7
M  V30 3 1 1 8
M  V30 4 3 2 4
M  V30 5 2 2 5
M  V30 6 2 3 5
M  V30 7 3 3 6
M  V30 8 1 3 11
M  V30 9 1 4 9
M  V30 10 1 5 10
M  V30 11 1 6 12
M  V30 END BOND
M  V30 END CTAB
M  END
>  <ID>
449
$$$$
Structure_450
Score 	 12.0, smilesprid 	smiles	 smilestrue 	smiles	 similartanimoto 	0	 similardice 	0

   12   11  0  0  0  0            999 V3000
M  V30 BEGIN CTAB
M  V30 COUNTS 12 11 0 0 0
M  V30 BEGIN ATOM
M  V30 1 C -1.7578 -0.7812 0.0000 0
M  V30 2 C -0.5859 0.1953 0.0000 0
M  V30 3 C 1.7578 0.1953 0.0000 0
M  V30 4 N -0.7812 1.3672 0.0000 0
M  V30 5 N 0.3906 -0.5859 0.0000 0
M  V30 6 N 2.7344 -0.5859 0.0000 0
M  V30 7 O -3.1250 -0.3906 0.0000 0
M  V30 8 H -1.5625 -1.9531 0.0000 0
M  V30 9 H -1.5625 1.7578 0.0000 0
M  V30 10 H 0.5859 -1.7578 0.0000 0
M  V30 11 H 1.7578 1.1719 0.0000 0
M  V30 12 H 3.5156 0.1953 0.0000 0
M  V30 END ATOM
M  V30 BEGIN BOND
M  V30 1 3 1 2
M  V30 2 2 1 7
M  V30 3 1 1 8
M  V30 4 3 2 4
M  V30 5 2 2 5
M  V30 6 2 3 5
M  V30 7 3 3 6
M  V30 8 1 3 11
M  V30 9 1 4 9
M  V30 10 1 5 10
M  V30 11 1 6 12
M  V30 END BOND
M  V30 END CTAB
M  END
>  <ID>
450
$$$$
Structure_451
Score 	 8.0, smilesprid 	smiles	 smilestrue 	smiles	 similartanimoto 	0	 similardice 	0

   12   11  0  0  0  0            999 V3000
M  V30 BEGIN CTAB
M  V30 COUNTS 12 11 0 0 0
M  V30 BEGIN ATOM
M  V30 1 C -1.7578 -0.7812 0.0000 0
M  V30 2 C -0.5859 0.1953 0.0000 0
M  V30 3 C 1.7578 0.1953 0.0000 0
M  V30 4 N -0.7812 1.3672 0.0000 0
M  V30 5 N 0.3906 -0.5859 0.0000 0
M  V30 6 N 2.7344 -0.5859 0.0000 0
M  V30 7 O -3.1250 -0.3906 0.0000 0
M  V30 8 H -1.5625 -1.9531 0.0000 0
M  V30 9 H -1.5625 1.7578 0.0000 0
M  V30 10 H 0.5859 -1.7578 0.0000 0
M  V30 11 H 1.7578 1.1719 0.0000 0
M  V30 12 H 3.5156 0.1953 0.0000 0
M  V30 END ATOM
M  V30 BEGIN BOND
M  V30 1 1 1 2
M  V30 2 2 1 7
M  V30 3 1 1 8
M  V30 4 1 2 4
M  V30 5 3 2 5
M  V30 6 2 3 5
M  V30 7 3 3 6
M  V30 8 1 3 11
M  V30 9 1 4 9
M  V30 10 1 5 10
M  V30 11 1 6 12
M  V30 END BOND
M  V30 END CTAB
M  END
>  <ID>
451
$$$$
Structure_452
Score 	 10.0, smilesprid 	smiles	 smilestrue 	smiles	 similartanimoto 	0	 similardice 	0

   12   11  0  0  0  0            999 V3000
M  V30 BEGIN CTAB
M  V30 COUNTS 12 11 0 0 0
M  V30 BEGIN ATOM
M  V30 1 C -1.7578 -0.7812 0.0000 0
M  V30 2 C -0.5859 0.1953 0.0000 0
M  V30 3 C 1.7578 0.1953 0.0000 0
M  V30 4 N -0.7812 1.3672 0.0000 0
M  V30 5 N 0.3906 -0.5859 0.0000 0
M  V30 6 N 2.7344 -0.5859 0.0000 0
M  V30 7 O -3.1250 -0.3906 0.0000 0
M  V30 8 H -1.5625 -1.9531 0.0000 0
M  V30 9 H -1.5625 1.7578 0.0000 0
M  V30 10 H 0.5859 -1.7578 0.0000 0
M  V30 11 H 1.7578 1.1719 0.0000 0
M  V30 12 H 3.5156 0.1953 0.0000 0
M  V30 END ATOM
M  V30 BEGIN BOND
M  V30 1 2 1 2
M  V30 2 2 1 7
M  V30 3 1 1 8
M  V30 4 1 2 4
M  V30 5 3 2 5
M  V30 6 2 3 5
M  V30 7 3 3 6
M  V30 8 1 3 11
M  V30 9 1 4 9
M  V30 10 1 5 10
M  V30 11 1 6 12
M  V30 END BOND
M  V30 END CTAB
M  END
>  <ID>
452
$$$$
Structure_453
Score 	 12.0, smilesprid 	smiles	 smilestrue 	smiles	 similartanimoto 	0	 similardice 	0

   12   11  0  0  0  0            999 V3000
M  V30 BEGIN CTAB
M  V30 COUNTS 12 11 0 0 0
M  V30 BEGIN ATOM
M  V30 1 C -1.7578 -0.7812 0.0000 0
M  V30 2 C -0.5859 0.1953 0.0000 0
M  V30 3 C 1.7578 0.1953 0.0000 0
M  V30 4 N -0.7812 1.3672 0.0000 0
M  V30 5 N 0.3906 -0.5859 0.0000 0
M  V30 6 N 2.7344 -0.5859 0.0000 0
M  V30 7 O -3.1250 -0.3906 0.0000 0
M  V30 8 H -1.5625 -1.9531 0.0000 0
M  V30 9 H -1.5625 1.7578 0.0000 0
M  V30 10 H 0.5859 -1.7578 0.0000 0
M  V30 11 H 1.7578 1.1719 0.0000 0
M  V30 12 H 3.5156 0.1953 0.0000 0
M  V30 END ATOM
M  V30 BEGIN BOND
M  V30 1 3 1 2
M  V30 2 2 1 7
M  V30 3 1 1 8
M  V30 4 1 2 4
M  V30 5 3 2 5
M  V30 6 2 3 5
M  V30 7 3 3 6
M  V30 8 1 3 11
M  V30 9 1 4 9
M  V30 10 1 5 10
M  V30 11 1 6 12
M  V30 END BOND
M  V30 END CTAB
M  END
>  <ID>
453
$$$$
Structure_454
Score 	 8.0, smilesprid 	smiles	 smilestrue 	smiles	 similartanimoto 	0	 similardice 	0

   12   11  0  0  0  0            999 V3000
M  V30 BEGIN CTAB
M  V30 COUNTS 12 11 0 0 0
M  V30 BEGIN ATOM
M  V30 1 C -1.7578 -0.7812 0.0000 0
M  V30 2 C -0.5859 0.1953 0.0000 0
M  V30 3 C 1.7578 0.1953 0.0000 0
M  V30 4 N -0.7812 1.3672 0.0000 0
M  V30 5 N 0.3906 -0.5859 0.0000 0
M  V30 6 N 2.7344 -0.5859 0.0000 0
M  V30 7 O -3.1250 -0.3906 0.0000 0
M  V30 8 H -1.5625 -1.9531 0.0000 0
M  V30 9 H -1.5625 1.7578 0.0000 0
M  V30 10 H 0.5859 -1.7578 0.0000 0
M  V30 11 H 1.7578 1.1719 0.0000 0
M  V30 12 H 3.5156 0.1953 0.0000 0
M  V30 END ATOM
M  V30 BEGIN BOND
M  V30 1 1 1 2
M  V30 2 2 1 7
M  V30 3 1 1 8
M  V30 4 2 2 4
M  V30 5 3 2 5
M  V30 6 2 3 5
M  V30 7 3 3 6
M  V30 8 1 3 11
M  V30 9 1 4 9
M  V30 10 1 5 10
M  V30 11 1 6 12
M  V30 END BOND
M  V30 END CTAB
M  END
>  <ID>
454
$$$$
Structure_455
Score 	 10.0, smilesprid 	smiles	 smilestrue 	smiles	 similartanimoto 	0	 similardice 	0

   12   11  0  0  0  0            999 V3000
M  V30 BEGIN CTAB
M  V30 COUNTS 12 11 0 0 0
M  V30 BEGIN ATOM
M  V30 1 C -1.7578 -0.7812 0.0000 0
M  V30 2 C -0.5859 0.1953 0.0000 0
M  V30 3 C 1.7578 0.1953 0.0000 0
M  V30 4 N -0.7812 1.3672 0.0000 0
M  V30 5 N 0.3906 -0.5859 0.0000 0
M  V30 6 N 2.7344 -0.5859 0.0000 0
M  V30 7 O -3.1250 -0.3906 0.0000 0
M  V30 8 H -1.5625 -1.9531 0.0000 0
M  V30 9 H -1.5625 1.7578 0.0000 0
M  V30 10 H 0.5859 -1.7578 0.0000 0
M  V30 11 H 1.7578 1.1719 0.0000 0
M  V30 12 H 3.5156 0.1953 0.0000 0
M  V30 END ATOM
M  V30 BEGIN BOND
M  V30 1 2 1 2
M  V30 2 2 1 7
M  V30 3 1 1 8
M  V30 4 2 2 4
M  V30 5 3 2 5
M  V30 6 2 3 5
M  V30 7 3 3 6
M  V30 8 1 3 11
M  V30 9 1 4 9
M  V30 10 1 5 10
M  V30 11 1 6 12
M  V30 END BOND
M  V30 END CTAB
M  END
>  <ID>
455
$$$$
Structure_456
Score 	 12.0, smilesprid 	smiles	 smilestrue 	smiles	 similartanimoto 	0	 similardice 	0

   12   11  0  0  0  0            999 V3000
M  V30 BEGIN CTAB
M  V30 COUNTS 12 11 0 0 0
M  V30 BEGIN ATOM
M  V30 1 C -1.7578 -0.7812 0.0000 0
M  V30 2 C -0.5859 0.1953 0.0000 0
M  V30 3 C 1.7578 0.1953 0.0000 0
M  V30 4 N -0.7812 1.3672 0.0000 0
M  V30 5 N 0.3906 -0.5859 0.0000 0
M  V30 6 N 2.7344 -0.5859 0.0000 0
M  V30 7 O -3.1250 -0.3906 0.0000 0
M  V30 8 H -1.5625 -1.9531 0.0000 0
M  V30 9 H -1.5625 1.7578 0.0000 0
M  V30 10 H 0.5859 -1.7578 0.0000 0
M  V30 11 H 1.7578 1.1719 0.0000 0
M  V30 12 H 3.5156 0.1953 0.0000 0
M  V30 END ATOM
M  V30 BEGIN BOND
M  V30 1 3 1 2
M  V30 2 2 1 7
M  V30 3 1 1 8
M  V30 4 2 2 4
M  V30 5 3 2 5
M  V30 6 2 3 5
M  V30 7 3 3 6
M  V30 8 1 3 11
M  V30 9 1 4 9
M  V30 10 1 5 10
M  V30 11 1 6 12
M  V30 END BOND
M  V30 END CTAB
M  END
>  <ID>
456
$$$$
Structure_457
Score 	 10.0, smilesprid 	smiles	 smilestrue 	smiles	 similartanimoto 	0	 similardice 	0

   12   11  0  0  0  0            999 V3000
M  V30 BEGIN CTAB
M  V30 COUNTS 12 11 0 0 0
M  V30 BEGIN ATOM
M  V30 1 C -1.7578 -0.7812 0.0000 0
M  V30 2 C -0.5859 0.1953 0.0000 0
M  V30 3 C 1.7578 0.1953 0.0000 0
M  V30 4 N -0.7812 1.3672 0.0000 0
M  V30 5 N 0.3906 -0.5859 0.0000 0
M  V30 6 N 2.7344 -0.5859 0.0000 0
M  V30 7 O -3.1250 -0.3906 0.0000 0
M  V30 8 H -1.5625 -1.9531 0.0000 0
M  V30 9 H -1.5625 1.7578 0.0000 0
M  V30 10 H 0.5859 -1.7578 0.0000 0
M  V30 11 H 1.7578 1.1719 0.0000 0
M  V30 12 H 3.5156 0.1953 0.0000 0
M  V30 END ATOM
M  V30 BEGIN BOND
M  V30 1 1 1 2
M  V30 2 2 1 7
M  V30 3 1 1 8
M  V30 4 3 2 4
M  V30 5 3 2 5
M  V30 6 2 3 5
M  V30 7 3 3 6
M  V30 8 1 3 11
M  V30 9 1 4 9
M  V30 10 1 5 10
M  V30 11 1 6 12
M  V30 END BOND
M  V30 END CTAB
M  END
>  <ID>
457
$$$$
Structure_458
Score 	 12.0, smilesprid 	smiles	 smilestrue 	smiles	 similartanimoto 	0	 similardice 	0

   12   11  0  0  0  0            999 V3000
M  V30 BEGIN CTAB
M  V30 COUNTS 12 11 0 0 0
M  V30 BEGIN ATOM
M  V30 1 C -1.7578 -0.7812 0.0000 0
M  V30 2 C -0.5859 0.1953 0.0000 0
M  V30 3 C 1.7578 0.1953 0.0000 0
M  V30 4 N -0.7812 1.3672 0.0000 0
M  V30 5 N 0.3906 -0.5859 0.0000 0
M  V30 6 N 2.7344 -0.5859 0.0000 0
M  V30 7 O -3.1250 -0.3906 0.0000 0
M  V30 8 H -1.5625 -1.9531 0.0000 0
M  V30 9 H -1.5625 1.7578 0.0000 0
M  V30 10 H 0.5859 -1.7578 0.0000 0
M  V30 11 H 1.7578 1.1719 0.0000 0
M  V30 12 H 3.5156 0.1953 0.0000 0
M  V30 END ATOM
M  V30 BEGIN BOND
M  V30 1 2 1 2
M  V30 2 2 1 7
M  V30 3 1 1 8
M  V30 4 3 2 4
M  V30 5 3 2 5
M  V30 6 2 3 5
M  V30 7 3 3 6
M  V30 8 1 3 11
M  V30 9 1 4 9
M  V30 10 1 5 10
M  V30 11 1 6 12
M  V30 END BOND
M  V30 END CTAB
M  END
>  <ID>
458
$$$$
Structure_459
Score 	 14.0, smilesprid 	smiles	 smilestrue 	smiles	 similartanimoto 	0	 similardice 	0

   12   11  0  0  0  0            999 V3000
M  V30 BEGIN CTAB
M  V30 COUNTS 12 11 0 0 0
M  V30 BEGIN ATOM
M  V30 1 C -1.7578 -0.7812 0.0000 0
M  V30 2 C -0.5859 0.1953 0.0000 0
M  V30 3 C 1.7578 0.1953 0.0000 0
M  V30 4 N -0.7812 1.3672 0.0000 0
M  V30 5 N 0.3906 -0.5859 0.0000 0
M  V30 6 N 2.7344 -0.5859 0.0000 0
M  V30 7 O -3.1250 -0.3906 0.0000 0
M  V30 8 H -1.5625 -1.9531 0.0000 0
M  V30 9 H -1.5625 1.7578 0.0000 0
M  V30 10 H 0.5859 -1.7578 0.0000 0
M  V30 11 H 1.7578 1.1719 0.0000 0
M  V30 12 H 3.5156 0.1953 0.0000 0
M  V30 END ATOM
M  V30 BEGIN BOND
M  V30 1 3 1 2
M  V30 2 2 1 7
M  V30 3 1 1 8
M  V30 4 3 2 4
M  V30 5 3 2 5
M  V30 6 2 3 5
M  V30 7 3 3 6
M  V30 8 1 3 11
M  V30 9 1 4 9
M  V30 10 1 5 10
M  V30 11 1 6 12
M  V30 END BOND
M  V30 END CTAB
M  END
>  <ID>
459
$$$$
Structure_460
Score 	 8.0, smilesprid 	smiles	 smilestrue 	smiles	 similartanimoto 	0	 similardice 	0

   12   11  0  0  0  0            999 V3000
M  V30 BEGIN CTAB
M  V30 COUNTS 12 11 0 0 0
M  V30 BEGIN ATOM
M  V30 1 C -1.7578 -0.7812 0.0000 0
M  V30 2 C -0.5859 0.1953 0.0000 0
M  V30 3 C 1.7578 0.1953 0.0000 0
M  V30 4 N -0.7812 1.3672 0.0000 0
M  V30 5 N 0.3906 -0.5859 0.0000 0
M  V30 6 N 2.7344 -0.5859 0.0000 0
M  V30 7 O -3.1250 -0.3906 0.0000 0
M  V30 8 H -1.5625 -1.9531 0.0000 0
M  V30 9 H -1.5625 1.7578 0.0000 0
M  V30 10 H 0.5859 -1.7578 0.0000 0
M  V30 11 H 1.7578 1.1719 0.0000 0
M  V30 12 H 3.5156 0.1953 0.0000 0
M  V30 END ATOM
M  V30 BEGIN BOND
M  V30 1 1 1 2
M  V30 2 2 1 7
M  V30 3 1 1 8
M  V30 4 1 2 4
M  V30 5 1 2 5
M  V30 6 3 3 5
M  V30 7 3 3 6
M  V30 8 1 3 11
M  V30 9 1 4 9
M  V30 10 1 5 10
M  V30 11 1 6 12
M  V30 END BOND
M  V30 END CTAB
M  END
>  <ID>
460
$$$$
Structure_461
Score 	 8.0, smilesprid 	smiles	 smilestrue 	smiles	 similartanimoto 	0	 similardice 	0

   12   11  0  0  0  0            999 V3000
M  V30 BEGIN CTAB
M  V30 COUNTS 12 11 0 0 0
M  V30 BEGIN ATOM
M  V30 1 C -1.7578 -0.7812 0.0000 0
M  V30 2 C -0.5859 0.1953 0.0000 0
M  V30 3 C 1.7578 0.1953 0.0000 0
M  V30 4 N -0.7812 1.3672 0.0000 0
M  V30 5 N 0.3906 -0.5859 0.0000 0
M  V30 6 N 2.7344 -0.5859 0.0000 0
M  V30 7 O -3.1250 -0.3906 0.0000 0
M  V30 8 H -1.5625 -1.9531 0.0000 0
M  V30 9 H -1.5625 1.7578 0.0000 0
M  V30 10 H 0.5859 -1.7578 0.0000 0
M  V30 11 H 1.7578 1.1719 0.0000 0
M  V30 12 H 3.5156 0.1953 0.0000 0
M  V30 END ATOM
M  V30 BEGIN BOND
M  V30 1 2 1 2
M  V30 2 2 1 7
M  V30 3 1 1 8
M  V30 4 1 2 4
M  V30 5 1 2 5
M  V30 6 3 3 5
M  V30 7 3 3 6
M  V30 8 1 3 11
M  V30 9 1 4 9
M  V30 10 1 5 10
M  V30 11 1 6 12
M  V30 END BOND
M  V30 END CTAB
M  END
>  <ID>
461
$$$$
Structure_462
Score 	 10.0, smilesprid 	smiles	 smilestrue 	smiles	 similartanimoto 	0	 similardice 	0

   12   11  0  0  0  0            999 V3000
M  V30 BEGIN CTAB
M  V30 COUNTS 12 11 0 0 0
M  V30 BEGIN ATOM
M  V30 1 C -1.7578 -0.7812 0.0000 0
M  V30 2 C -0.5859 0.1953 0.0000 0
M  V30 3 C 1.7578 0.1953 0.0000 0
M  V30 4 N -0.7812 1.3672 0.0000 0
M  V30 5 N 0.3906 -0.5859 0.0000 0
M  V30 6 N 2.7344 -0.5859 0.0000 0
M  V30 7 O -3.1250 -0.3906 0.0000 0
M  V30 8 H -1.5625 -1.9531 0.0000 0
M  V30 9 H -1.5625 1.7578 0.0000 0
M  V30 10 H 0.5859 -1.7578 0.0000 0
M  V30 11 H 1.7578 1.1719 0.0000 0
M  V30 12 H 3.5156 0.1953 0.0000 0
M  V30 END ATOM
M  V30 BEGIN BOND
M  V30 1 3 1 2
M  V30 2 2 1 7
M  V30 3 1 1 8
M  V30 4 1 2 4
M  V30 5 1 2 5
M  V30 6 3 3 5
M  V30 7 3 3 6
M  V30 8 1 3 11
M  V30 9 1 4 9
M  V30 10 1 5 10
M  V30 11 1 6 12
M  V30 END BOND
M  V30 END CTAB
M  END
>  <ID>
462
$$$$
Structure_463
Score 	 6.0, smilesprid 	smiles	 smilestrue 	smiles	 similartanimoto 	0	 similardice 	0

   12   11  0  0  0  0            999 V3000
M  V30 BEGIN CTAB
M  V30 COUNTS 12 11 0 0 0
M  V30 BEGIN ATOM
M  V30 1 C -1.7578 -0.7812 0.0000 0
M  V30 2 C -0.5859 0.1953 0.0000 0
M  V30 3 C 1.7578 0.1953 0.0000 0
M  V30 4 N -0.7812 1.3672 0.0000 0
M  V30 5 N 0.3906 -0.5859 0.0000 0
M  V30 6 N 2.7344 -0.5859 0.0000 0
M  V30 7 O -3.1250 -0.3906 0.0000 0
M  V30 8 H -1.5625 -1.9531 0.0000 0
M  V30 9 H -1.5625 1.7578 0.0000 0
M  V30 10 H 0.5859 -1.7578 0.0000 0
M  V30 11 H 1.7578 1.1719 0.0000 0
M  V30 12 H 3.5156 0.1953 0.0000 0
M  V30 END ATOM
M  V30 BEGIN BOND
M  V30 1 1 1 2
M  V30 2 2 1 7
M  V30 3 1 1 8
M  V30 4 2 2 4
M  V30 5 1 2 5
M  V30 6 3 3 5
M  V30 7 3 3 6
M  V30 8 1 3 11
M  V30 9 1 4 9
M  V30 10 1 5 10
M  V30 11 1 6 12
M  V30 END BOND
M  V30 END CTAB
M  END
>  <ID>
463
$$$$
Structure_464
Score 	 8.0, smilesprid 	smiles	 smilestrue 	smiles	 similartanimoto 	0	 similardice 	0

   12   11  0  0  0  0            999 V3000
M  V30 BEGIN CTAB
M  V30 COUNTS 12 11 0 0 0
M  V30 BEGIN ATOM
M  V30 1 C -1.7578 -0.7812 0.0000 0
M  V30 2 C -0.5859 0.1953 0.0000 0
M  V30 3 C 1.7578 0.1953 0.0000 0
M  V30 4 N -0.7812 1.3672 0.0000 0
M  V30 5 N 0.3906 -0.5859 0.0000 0
M  V30 6 N 2.7344 -0.5859 0.0000 0
M  V30 7 O -3.1250 -0.3906 0.0000 0
M  V30 8 H -1.5625 -1.9531 0.0000 0
M  V30 9 H -1.5625 1.7578 0.0000 0
M  V30 10 H 0.5859 -1.7578 0.0000 0
M  V30 11 H 1.7578 1.1719 0.0000 0
M  V30 12 H 3.5156 0.1953 0.0000 0
M  V30 END ATOM
M  V30 BEGIN BOND
M  V30 1 2 1 2
M  V30 2 2 1 7
M  V30 3 1 1 8
M  V30 4 2 2 4
M  V30 5 1 2 5
M  V30 6 3 3 5
M  V30 7 3 3 6
M  V30 8 1 3 11
M  V30 9 1 4 9
M  V30 10 1 5 10
M  V30 11 1 6 12
M  V30 END BOND
M  V30 END CTAB
M  END
>  <ID>
464
$$$$
Structure_465
Score 	 10.0, smilesprid 	smiles	 smilestrue 	smiles	 similartanimoto 	0	 similardice 	0

   12   11  0  0  0  0            999 V3000
M  V30 BEGIN CTAB
M  V30 COUNTS 12 11 0 0 0
M  V30 BEGIN ATOM
M  V30 1 C -1.7578 -0.7812 0.0000 0
M  V30 2 C -0.5859 0.1953 0.0000 0
M  V30 3 C 1.7578 0.1953 0.0000 0
M  V30 4 N -0.7812 1.3672 0.0000 0
M  V30 5 N 0.3906 -0.5859 0.0000 0
M  V30 6 N 2.7344 -0.5859 0.0000 0
M  V30 7 O -3.1250 -0.3906 0.0000 0
M  V30 8 H -1.5625 -1.9531 0.0000 0
M  V30 9 H -1.5625 1.7578 0.0000 0
M  V30 10 H 0.5859 -1.7578 0.0000 0
M  V30 11 H 1.7578 1.1719 0.0000 0
M  V30 12 H 3.5156 0.1953 0.0000 0
M  V30 END ATOM
M  V30 BEGIN BOND
M  V30 1 3 1 2
M  V30 2 2 1 7
M  V30 3 1 1 8
M  V30 4 2 2 4
M  V30 5 1 2 5
M  V30 6 3 3 5
M  V30 7 3 3 6
M  V30 8 1 3 11
M  V30 9 1 4 9
M  V30 10 1 5 10
M  V30 11 1 6 12
M  V30 END BOND
M  V30 END CTAB
M  END
>  <ID>
465
$$$$
Structure_466
Score 	 8.0, smilesprid 	smiles	 smilestrue 	smiles	 similartanimoto 	0	 similardice 	0

   12   11  0  0  0  0            999 V3000
M  V30 BEGIN CTAB
M  V30 COUNTS 12 11 0 0 0
M  V30 BEGIN ATOM
M  V30 1 C -1.7578 -0.7812 0.0000 0
M  V30 2 C -0.5859 0.1953 0.0000 0
M  V30 3 C 1.7578 0.1953 0.0000 0
M  V30 4 N -0.7812 1.3672 0.0000 0
M  V30 5 N 0.3906 -0.5859 0.0000 0
M  V30 6 N 2.7344 -0.5859 0.0000 0
M  V30 7 O -3.1250 -0.3906 0.0000 0
M  V30 8 H -1.5625 -1.9531 0.0000 0
M  V30 9 H -1.5625 1.7578 0.0000 0
M  V30 10 H 0.5859 -1.7578 0.0000 0
M  V30 11 H 1.7578 1.1719 0.0000 0
M  V30 12 H 3.5156 0.1953 0.0000 0
M  V30 END ATOM
M  V30 BEGIN BOND
M  V30 1 1 1 2
M  V30 2 2 1 7
M  V30 3 1 1 8
M  V30 4 3 2 4
M  V30 5 1 2 5
M  V30 6 3 3 5
M  V30 7 3 3 6
M  V30 8 1 3 11
M  V30 9 1 4 9
M  V30 10 1 5 10
M  V30 11 1 6 12
M  V30 END BOND
M  V30 END CTAB
M  END
>  <ID>
466
$$$$
Structure_467
Score 	 10.0, smilesprid 	smiles	 smilestrue 	smiles	 similartanimoto 	0	 similardice 	0

   12   11  0  0  0  0            999 V3000
M  V30 BEGIN CTAB
M  V30 COUNTS 12 11 0 0 0
M  V30 BEGIN ATOM
M  V30 1 C -1.7578 -0.7812 0.0000 0
M  V30 2 C -0.5859 0.1953 0.0000 0
M  V30 3 C 1.7578 0.1953 0.0000 0
M  V30 4 N -0.7812 1.3672 0.0000 0
M  V30 5 N 0.3906 -0.5859 0.0000 0
M  V30 6 N 2.7344 -0.5859 0.0000 0
M  V30 7 O -3.1250 -0.3906 0.0000 0
M  V30 8 H -1.5625 -1.9531 0.0000 0
M  V30 9 H -1.5625 1.7578 0.0000 0
M  V30 10 H 0.5859 -1.7578 0.0000 0
M  V30 11 H 1.7578 1.1719 0.0000 0
M  V30 12 H 3.5156 0.1953 0.0000 0
M  V30 END ATOM
M  V30 BEGIN BOND
M  V30 1 2 1 2
M  V30 2 2 1 7
M  V30 3 1 1 8
M  V30 4 3 2 4
M  V30 5 1 2 5
M  V30 6 3 3 5
M  V30 7 3 3 6
M  V30 8 1 3 11
M  V30 9 1 4 9
M  V30 10 1 5 10
M  V30 11 1 6 12
M  V30 END BOND
M  V30 END CTAB
M  END
>  <ID>
467
$$$$
Structure_468
Score 	 12.0, smilesprid 	smiles	 smilestrue 	smiles	 similartanimoto 	0	 similardice 	0

   12   11  0  0  0  0            999 V3000
M  V30 BEGIN CTAB
M  V30 COUNTS 12 11 0 0 0
M  V30 BEGIN ATOM
M  V30 1 C -1.7578 -0.7812 0.0000 0
M  V30 2 C -0.5859 0.1953 0.0000 0
M  V30 3 C 1.7578 0.1953 0.0000 0
M  V30 4 N -0.7812 1.3672 0.0000 0
M  V30 5 N 0.3906 -0.5859 0.0000 0
M  V30 6 N 2.7344 -0.5859 0.0000 0
M  V30 7 O -3.1250 -0.3906 0.0000 0
M  V30 8 H -1.5625 -1.9531 0.0000 0
M  V30 9 H -1.5625 1.7578 0.0000 0
M  V30 10 H 0.5859 -1.7578 0.0000 0
M  V30 11 H 1.7578 1.1719 0.0000 0
M  V30 12 H 3.5156 0.1953 0.0000 0
M  V30 END ATOM
M  V30 BEGIN BOND
M  V30 1 3 1 2
M  V30 2 2 1 7
M  V30 3 1 1 8
M  V30 4 3 2 4
M  V30 5 1 2 5
M  V30 6 3 3 5
M  V30 7 3 3 6
M  V30 8 1 3 11
M  V30 9 1 4 9
M  V30 10 1 5 10
M  V30 11 1 6 12
M  V30 END BOND
M  V30 END CTAB
M  END
>  <ID>
468
$$$$
Structure_469
Score 	 8.0, smilesprid 	smiles	 smilestrue 	smiles	 similartanimoto 	0	 similardice 	0

   12   11  0  0  0  0            999 V3000
M  V30 BEGIN CTAB
M  V30 COUNTS 12 11 0 0 0
M  V30 BEGIN ATOM
M  V30 1 C -1.7578 -0.7812 0.0000 0
M  V30 2 C -0.5859 0.1953 0.0000 0
M  V30 3 C 1.7578 0.1953 0.0000 0
M  V30 4 N -0.7812 1.3672 0.0000 0
M  V30 5 N 0.3906 -0.5859 0.0000 0
M  V30 6 N 2.7344 -0.5859 0.0000 0
M  V30 7 O -3.1250 -0.3906 0.0000 0
M  V30 8 H -1.5625 -1.9531 0.0000 0
M  V30 9 H -1.5625 1.7578 0.0000 0
M  V30 10 H 0.5859 -1.7578 0.0000 0
M  V30 11 H 1.7578 1.1719 0.0000 0
M  V30 12 H 3.5156 0.1953 0.0000 0
M  V30 END ATOM
M  V30 BEGIN BOND
M  V30 1 1 1 2
M  V30 2 2 1 7
M  V30 3 1 1 8
M  V30 4 1 2 4
M  V30 5 2 2 5
M  V30 6 3 3 5
M  V30 7 3 3 6
M  V30 8 1 3 11
M  V30 9 1 4 9
M  V30 10 1 5 10
M  V30 11 1 6 12
M  V30 END BOND
M  V30 END CTAB
M  END
>  <ID>
469
$$$$
Structure_470
Score 	 10.0, smilesprid 	smiles	 smilestrue 	smiles	 similartanimoto 	0	 similardice 	0

   12   11  0  0  0  0            999 V3000
M  V30 BEGIN CTAB
M  V30 COUNTS 12 11 0 0 0
M  V30 BEGIN ATOM
M  V30 1 C -1.7578 -0.7812 0.0000 0
M  V30 2 C -0.5859 0.1953 0.0000 0
M  V30 3 C 1.7578 0.1953 0.0000 0
M  V30 4 N -0.7812 1.3672 0.0000 0
M  V30 5 N 0.3906 -0.5859 0.0000 0
M  V30 6 N 2.7344 -0.5859 0.0000 0
M  V30 7 O -3.1250 -0.3906 0.0000 0
M  V30 8 H -1.5625 -1.9531 0.0000 0
M  V30 9 H -1.5625 1.7578 0.0000 0
M  V30 10 H 0.5859 -1.7578 0.0000 0
M  V30 11 H 1.7578 1.1719 0.0000 0
M  V30 12 H 3.5156 0.1953 0.0000 0
M  V30 END ATOM
M  V30 BEGIN BOND
M  V30 1 2 1 2
M  V30 2 2 1 7
M  V30 3 1 1 8
M  V30 4 1 2 4
M  V30 5 2 2 5
M  V30 6 3 3 5
M  V30 7 3 3 6
M  V30 8 1 3 11
M  V30 9 1 4 9
M  V30 10 1 5 10
M  V30 11 1 6 12
M  V30 END BOND
M  V30 END CTAB
M  END
>  <ID>
470
$$$$
Structure_471
Score 	 12.0, smilesprid 	smiles	 smilestrue 	smiles	 similartanimoto 	0	 similardice 	0

   12   11  0  0  0  0            999 V3000
M  V30 BEGIN CTAB
M  V30 COUNTS 12 11 0 0 0
M  V30 BEGIN ATOM
M  V30 1 C -1.7578 -0.7812 0.0000 0
M  V30 2 C -0.5859 0.1953 0.0000 0
M  V30 3 C 1.7578 0.1953 0.0000 0
M  V30 4 N -0.7812 1.3672 0.0000 0
M  V30 5 N 0.3906 -0.5859 0.0000 0
M  V30 6 N 2.7344 -0.5859 0.0000 0
M  V30 7 O -3.1250 -0.3906 0.0000 0
M  V30 8 H -1.5625 -1.9531 0.0000 0
M  V30 9 H -1.5625 1.7578 0.0000 0
M  V30 10 H 0.5859 -1.7578 0.0000 0
M  V30 11 H 1.7578 1.1719 0.0000 0
M  V30 12 H 3.5156 0.1953 0.0000 0
M  V30 END ATOM
M  V30 BEGIN BOND
M  V30 1 3 1 2
M  V30 2 2 1 7
M  V30 3 1 1 8
M  V30 4 1 2 4
M  V30 5 2 2 5
M  V30 6 3 3 5
M  V30 7 3 3 6
M  V30 8 1 3 11
M  V30 9 1 4 9
M  V30 10 1 5 10
M  V30 11 1 6 12
M  V30 END BOND
M  V30 END CTAB
M  END
>  <ID>
471
$$$$
Structure_472
Score 	 8.0, smilesprid 	smiles	 smilestrue 	smiles	 similartanimoto 	0	 similardice 	0

   12   11  0  0  0  0            999 V3000
M  V30 BEGIN CTAB
M  V30 COUNTS 12 11 0 0 0
M  V30 BEGIN ATOM
M  V30 1 C -1.7578 -0.7812 0.0000 0
M  V30 2 C -0.5859 0.1953 0.0000 0
M  V30 3 C 1.7578 0.1953 0.0000 0
M  V30 4 N -0.7812 1.3672 0.0000 0
M  V30 5 N 0.3906 -0.5859 0.0000 0
M  V30 6 N 2.7344 -0.5859 0.0000 0
M  V30 7 O -3.1250 -0.3906 0.0000 0
M  V30 8 H -1.5625 -1.9531 0.0000 0
M  V30 9 H -1.5625 1.7578 0.0000 0
M  V30 10 H 0.5859 -1.7578 0.0000 0
M  V30 11 H 1.7578 1.1719 0.0000 0
M  V30 12 H 3.5156 0.1953 0.0000 0
M  V30 END ATOM
M  V30 BEGIN BOND
M  V30 1 1 1 2
M  V30 2 2 1 7
M  V30 3 1 1 8
M  V30 4 2 2 4
M  V30 5 2 2 5
M  V30 6 3 3 5
M  V30 7 3 3 6
M  V30 8 1 3 11
M  V30 9 1 4 9
M  V30 10 1 5 10
M  V30 11 1 6 12
M  V30 END BOND
M  V30 END CTAB
M  END
>  <ID>
472
$$$$
Structure_473
Score 	 10.0, smilesprid 	smiles	 smilestrue 	smiles	 similartanimoto 	0	 similardice 	0

   12   11  0  0  0  0            999 V3000
M  V30 BEGIN CTAB
M  V30 COUNTS 12 11 0 0 0
M  V30 BEGIN ATOM
M  V30 1 C -1.7578 -0.7812 0.0000 0
M  V30 2 C -0.5859 0.1953 0.0000 0
M  V30 3 C 1.7578 0.1953 0.0000 0
M  V30 4 N -0.7812 1.3672 0.0000 0
M  V30 5 N 0.3906 -0.5859 0.0000 0
M  V30 6 N 2.7344 -0.5859 0.0000 0
M  V30 7 O -3.1250 -0.3906 0.0000 0
M  V30 8 H -1.5625 -1.9531 0.0000 0
M  V30 9 H -1.5625 1.7578 0.0000 0
M  V30 10 H 0.5859 -1.7578 0.0000 0
M  V30 11 H 1.7578 1.1719 0.0000 0
M  V30 12 H 3.5156 0.1953 0.0000 0
M  V30 END ATOM
M  V30 BEGIN BOND
M  V30 1 2 1 2
M  V30 2 2 1 7
M  V30 3 1 1 8
M  V30 4 2 2 4
M  V30 5 2 2 5
M  V30 6 3 3 5
M  V30 7 3 3 6
M  V30 8 1 3 11
M  V30 9 1 4 9
M  V30 10 1 5 10
M  V30 11 1 6 12
M  V30 END BOND
M  V30 END CTAB
M  END
>  <ID>
473
$$$$
Structure_474
Score 	 12.0, smilesprid 	smiles	 smilestrue 	smiles	 similartanimoto 	0	 similardice 	0

   12   11  0  0  0  0            999 V3000
M  V30 BEGIN CTAB
M  V30 COUNTS 12 11 0 0 0
M  V30 BEGIN ATOM
M  V30 1 C -1.7578 -0.7812 0.0000 0
M  V30 2 C -0.5859 0.1953 0.0000 0
M  V30 3 C 1.7578 0.1953 0.0000 0
M  V30 4 N -0.7812 1.3672 0.0000 0
M  V30 5 N 0.3906 -0.5859 0.0000 0
M  V30 6 N 2.7344 -0.5859 0.0000 0
M  V30 7 O -3.1250 -0.3906 0.0000 0
M  V30 8 H -1.5625 -1.9531 0.0000 0
M  V30 9 H -1.5625 1.7578 0.0000 0
M  V30 10 H 0.5859 -1.7578 0.0000 0
M  V30 11 H 1.7578 1.1719 0.0000 0
M  V30 12 H 3.5156 0.1953 0.0000 0
M  V30 END ATOM
M  V30 BEGIN BOND
M  V30 1 3 1 2
M  V30 2 2 1 7
M  V30 3 1 1 8
M  V30 4 2 2 4
M  V30 5 2 2 5
M  V30 6 3 3 5
M  V30 7 3 3 6
M  V30 8 1 3 11
M  V30 9 1 4 9
M  V30 10 1 5 10
M  V30 11 1 6 12
M  V30 END BOND
M  V30 END CTAB
M  END
>  <ID>
474
$$$$
Structure_475
Score 	 10.0, smilesprid 	smiles	 smilestrue 	smiles	 similartanimoto 	0	 similardice 	0

   12   11  0  0  0  0            999 V3000
M  V30 BEGIN CTAB
M  V30 COUNTS 12 11 0 0 0
M  V30 BEGIN ATOM
M  V30 1 C -1.7578 -0.7812 0.0000 0
M  V30 2 C -0.5859 0.1953 0.0000 0
M  V30 3 C 1.7578 0.1953 0.0000 0
M  V30 4 N -0.7812 1.3672 0.0000 0
M  V30 5 N 0.3906 -0.5859 0.0000 0
M  V30 6 N 2.7344 -0.5859 0.0000 0
M  V30 7 O -3.1250 -0.3906 0.0000 0
M  V30 8 H -1.5625 -1.9531 0.0000 0
M  V30 9 H -1.5625 1.7578 0.0000 0
M  V30 10 H 0.5859 -1.7578 0.0000 0
M  V30 11 H 1.7578 1.1719 0.0000 0
M  V30 12 H 3.5156 0.1953 0.0000 0
M  V30 END ATOM
M  V30 BEGIN BOND
M  V30 1 1 1 2
M  V30 2 2 1 7
M  V30 3 1 1 8
M  V30 4 3 2 4
M  V30 5 2 2 5
M  V30 6 3 3 5
M  V30 7 3 3 6
M  V30 8 1 3 11
M  V30 9 1 4 9
M  V30 10 1 5 10
M  V30 11 1 6 12
M  V30 END BOND
M  V30 END CTAB
M  END
>  <ID>
475
$$$$
Structure_476
Score 	 12.0, smilesprid 	smiles	 smilestrue 	smiles	 similartanimoto 	0	 similardice 	0

   12   11  0  0  0  0            999 V3000
M  V30 BEGIN CTAB
M  V30 COUNTS 12 11 0 0 0
M  V30 BEGIN ATOM
M  V30 1 C -1.7578 -0.7812 0.0000 0
M  V30 2 C -0.5859 0.1953 0.0000 0
M  V30 3 C 1.7578 0.1953 0.0000 0
M  V30 4 N -0.7812 1.3672 0.0000 0
M  V30 5 N 0.3906 -0.5859 0.0000 0
M  V30 6 N 2.7344 -0.5859 0.0000 0
M  V30 7 O -3.1250 -0.3906 0.0000 0
M  V30 8 H -1.5625 -1.9531 0.0000 0
M  V30 9 H -1.5625 1.7578 0.0000 0
M  V30 10 H 0.5859 -1.7578 0.0000 0
M  V30 11 H 1.7578 1.1719 0.0000 0
M  V30 12 H 3.5156 0.1953 0.0000 0
M  V30 END ATOM
M  V30 BEGIN BOND
M  V30 1 2 1 2
M  V30 2 2 1 7
M  V30 3 1 1 8
M  V30 4 3 2 4
M  V30 5 2 2 5
M  V30 6 3 3 5
M  V30 7 3 3 6
M  V30 8 1 3 11
M  V30 9 1 4 9
M  V30 10 1 5 10
M  V30 11 1 6 12
M  V30 END BOND
M  V30 END CTAB
M  END
>  <ID>
476
$$$$
Structure_477
Score 	 14.0, smilesprid 	smiles	 smilestrue 	smiles	 similartanimoto 	0	 similardice 	0

   12   11  0  0  0  0            999 V3000
M  V30 BEGIN CTAB
M  V30 COUNTS 12 11 0 0 0
M  V30 BEGIN ATOM
M  V30 1 C -1.7578 -0.7812 0.0000 0
M  V30 2 C -0.5859 0.1953 0.0000 0
M  V30 3 C 1.7578 0.1953 0.0000 0
M  V30 4 N -0.7812 1.3672 0.0000 0
M  V30 5 N 0.3906 -0.5859 0.0000 0
M  V30 6 N 2.7344 -0.5859 0.0000 0
M  V30 7 O -3.1250 -0.3906 0.0000 0
M  V30 8 H -1.5625 -1.9531 0.0000 0
M  V30 9 H -1.5625 1.7578 0.0000 0
M  V30 10 H 0.5859 -1.7578 0.0000 0
M  V30 11 H 1.7578 1.1719 0.0000 0
M  V30 12 H 3.5156 0.1953 0.0000 0
M  V30 END ATOM
M  V30 BEGIN BOND
M  V30 1 3 1 2
M  V30 2 2 1 7
M  V30 3 1 1 8
M  V30 4 3 2 4
M  V30 5 2 2 5
M  V30 6 3 3 5
M  V30 7 3 3 6
M  V30 8 1 3 11
M  V30 9 1 4 9
M  V30 10 1 5 10
M  V30 11 1 6 12
M  V30 END BOND
M  V30 END CTAB
M  END
>  <ID>
477
$$$$
Structure_478
Score 	 10.0, smilesprid 	smiles	 smilestrue 	smiles	 similartanimoto 	0	 similardice 	0

   12   11  0  0  0  0            999 V3000
M  V30 BEGIN CTAB
M  V30 COUNTS 12 11 0 0 0
M  V30 BEGIN ATOM
M  V30 1 C -1.7578 -0.7812 0.0000 0
M  V30 2 C -0.5859 0.1953 0.0000 0
M  V30 3 C 1.7578 0.1953 0.0000 0
M  V30 4 N -0.7812 1.3672 0.0000 0
M  V30 5 N 0.3906 -0.5859 0.0000 0
M  V30 6 N 2.7344 -0.5859 0.0000 0
M  V30 7 O -3.1250 -0.3906 0.0000 0
M  V30 8 H -1.5625 -1.9531 0.0000 0
M  V30 9 H -1.5625 1.7578 0.0000 0
M  V30 10 H 0.5859 -1.7578 0.0000 0
M  V30 11 H 1.7578 1.1719 0.0000 0
M  V30 12 H 3.5156 0.1953 0.0000 0
M  V30 END ATOM
M  V30 BEGIN BOND
M  V30 1 1 1 2
M  V30 2 2 1 7
M  V30 3 1 1 8
M  V30 4 1 2 4
M  V30 5 3 2 5
M  V30 6 3 3 5
M  V30 7 3 3 6
M  V30 8 1 3 11
M  V30 9 1 4 9
M  V30 10 1 5 10
M  V30 11 1 6 12
M  V30 END BOND
M  V30 END CTAB
M  END
>  <ID>
478
$$$$
Structure_479
Score 	 12.0, smilesprid 	smiles	 smilestrue 	smiles	 similartanimoto 	0	 similardice 	0

   12   11  0  0  0  0            999 V3000
M  V30 BEGIN CTAB
M  V30 COUNTS 12 11 0 0 0
M  V30 BEGIN ATOM
M  V30 1 C -1.7578 -0.7812 0.0000 0
M  V30 2 C -0.5859 0.1953 0.0000 0
M  V30 3 C 1.7578 0.1953 0.0000 0
M  V30 4 N -0.7812 1.3672 0.0000 0
M  V30 5 N 0.3906 -0.5859 0.0000 0
M  V30 6 N 2.7344 -0.5859 0.0000 0
M  V30 7 O -3.1250 -0.3906 0.0000 0
M  V30 8 H -1.5625 -1.9531 0.0000 0
M  V30 9 H -1.5625 1.7578 0.0000 0
M  V30 10 H 0.5859 -1.7578 0.0000 0
M  V30 11 H 1.7578 1.1719 0.0000 0
M  V30 12 H 3.5156 0.1953 0.0000 0
M  V30 END ATOM
M  V30 BEGIN BOND
M  V30 1 2 1 2
M  V30 2 2 1 7
M  V30 3 1 1 8
M  V30 4 1 2 4
M  V30 5 3 2 5
M  V30 6 3 3 5
M  V30 7 3 3 6
M  V30 8 1 3 11
M  V30 9 1 4 9
M  V30 10 1 5 10
M  V30 11 1 6 12
M  V30 END BOND
M  V30 END CTAB
M  END
>  <ID>
479
$$$$
Structure_480
Score 	 14.0, smilesprid 	smiles	 smilestrue 	smiles	 similartanimoto 	0	 similardice 	0

   12   11  0  0  0  0            999 V3000
M  V30 BEGIN CTAB
M  V30 COUNTS 12 11 0 0 0
M  V30 BEGIN ATOM
M  V30 1 C -1.7578 -0.7812 0.0000 0
M  V30 2 C -0.5859 0.1953 0.0000 0
M  V30 3 C 1.7578 0.1953 0.0000 0
M  V30 4 N -0.7812 1.3672 0.0000 0
M  V30 5 N 0.3906 -0.5859 0.0000 0
M  V30 6 N 2.7344 -0.5859 0.0000 0
M  V30 7 O -3.1250 -0.3906 0.0000 0
M  V30 8 H -1.5625 -1.9531 0.0000 0
M  V30 9 H -1.5625 1.7578 0.0000 0
M  V30 10 H 0.5859 -1.7578 0.0000 0
M  V30 11 H 1.7578 1.1719 0.0000 0
M  V30 12 H 3.5156 0.1953 0.0000 0
M  V30 END ATOM
M  V30 BEGIN BOND
M  V30 1 3 1 2
M  V30 2 2 1 7
M  V30 3 1 1 8
M  V30 4 1 2 4
M  V30 5 3 2 5
M  V30 6 3 3 5
M  V30 7 3 3 6
M  V30 8 1 3 11
M  V30 9 1 4 9
M  V30 10 1 5 10
M  V30 11 1 6 12
M  V30 END BOND
M  V30 END CTAB
M  END
>  <ID>
480
$$$$
Structure_481
Score 	 10.0, smilesprid 	smiles	 smilestrue 	smiles	 similartanimoto 	0	 similardice 	0

   12   11  0  0  0  0            999 V3000
M  V30 BEGIN CTAB
M  V30 COUNTS 12 11 0 0 0
M  V30 BEGIN ATOM
M  V30 1 C -1.7578 -0.7812 0.0000 0
M  V30 2 C -0.5859 0.1953 0.0000 0
M  V30 3 C 1.7578 0.1953 0.0000 0
M  V30 4 N -0.7812 1.3672 0.0000 0
M  V30 5 N 0.3906 -0.5859 0.0000 0
M  V30 6 N 2.7344 -0.5859 0.0000 0
M  V30 7 O -3.1250 -0.3906 0.0000 0
M  V30 8 H -1.5625 -1.9531 0.0000 0
M  V30 9 H -1.5625 1.7578 0.0000 0
M  V30 10 H 0.5859 -1.7578 0.0000 0
M  V30 11 H 1.7578 1.1719 0.0000 0
M  V30 12 H 3.5156 0.1953 0.0000 0
M  V30 END ATOM
M  V30 BEGIN BOND
M  V30 1 1 1 2
M  V30 2 2 1 7
M  V30 3 1 1 8
M  V30 4 2 2 4
M  V30 5 3 2 5
M  V30 6 3 3 5
M  V30 7 3 3 6
M  V30 8 1 3 11
M  V30 9 1 4 9
M  V30 10 1 5 10
M  V30 11 1 6 12
M  V30 END BOND
M  V30 END CTAB
M  END
>  <ID>
481
$$$$
Structure_482
Score 	 12.0, smilesprid 	smiles	 smilestrue 	smiles	 similartanimoto 	0	 similardice 	0

   12   11  0  0  0  0            999 V3000
M  V30 BEGIN CTAB
M  V30 COUNTS 12 11 0 0 0
M  V30 BEGIN ATOM
M  V30 1 C -1.7578 -0.7812 0.0000 0
M  V30 2 C -0.5859 0.1953 0.0000 0
M  V30 3 C 1.7578 0.1953 0.0000 0
M  V30 4 N -0.7812 1.3672 0.0000 0
M  V30 5 N 0.3906 -0.5859 0.0000 0
M  V30 6 N 2.7344 -0.5859 0.0000 0
M  V30 7 O -3.1250 -0.3906 0.0000 0
M  V30 8 H -1.5625 -1.9531 0.0000 0
M  V30 9 H -1.5625 1.7578 0.0000 0
M  V30 10 H 0.5859 -1.7578 0.0000 0
M  V30 11 H 1.7578 1.1719 0.0000 0
M  V30 12 H 3.5156 0.1953 0.0000 0
M  V30 END ATOM
M  V30 BEGIN BOND
M  V30 1 2 1 2
M  V30 2 2 1 7
M  V30 3 1 1 8
M  V30 4 2 2 4
M  V30 5 3 2 5
M  V30 6 3 3 5
M  V30 7 3 3 6
M  V30 8 1 3 11
M  V30 9 1 4 9
M  V30 10 1 5 10
M  V30 11 1 6 12
M  V30 END BOND
M  V30 END CTAB
M  END
>  <ID>
482
$$$$
Structure_483
Score 	 14.0, smilesprid 	smiles	 smilestrue 	smiles	 similartanimoto 	0	 similardice 	0

   12   11  0  0  0  0            999 V3000
M  V30 BEGIN CTAB
M  V30 COUNTS 12 11 0 0 0
M  V30 BEGIN ATOM
M  V30 1 C -1.7578 -0.7812 0.0000 0
M  V30 2 C -0.5859 0.1953 0.0000 0
M  V30 3 C 1.7578 0.1953 0.0000 0
M  V30 4 N -0.7812 1.3672 0.0000 0
M  V30 5 N 0.3906 -0.5859 0.0000 0
M  V30 6 N 2.7344 -0.5859 0.0000 0
M  V30 7 O -3.1250 -0.3906 0.0000 0
M  V30 8 H -1.5625 -1.9531 0.0000 0
M  V30 9 H -1.5625 1.7578 0.0000 0
M  V30 10 H 0.5859 -1.7578 0.0000 0
M  V30 11 H 1.7578 1.1719 0.0000 0
M  V30 12 H 3.5156 0.1953 0.0000 0
M  V30 END ATOM
M  V30 BEGIN BOND
M  V30 1 3 1 2
M  V30 2 2 1 7
M  V30 3 1 1 8
M  V30 4 2 2 4
M  V30 5 3 2 5
M  V30 6 3 3 5
M  V30 7 3 3 6
M  V30 8 1 3 11
M  V30 9 1 4 9
M  V30 10 1 5 10
M  V30 11 1 6 12
M  V30 END BOND
M  V30 END CTAB
M  END
>  <ID>
483
$$$$
Structure_484
Score 	 12.0, smilesprid 	smiles	 smilestrue 	smiles	 similartanimoto 	0	 similardice 	0

   12   11  0  0  0  0            999 V3000
M  V30 BEGIN CTAB
M  V30 COUNTS 12 11 0 0 0
M  V30 BEGIN ATOM
M  V30 1 C -1.7578 -0.7812 0.0000 0
M  V30 2 C -0.5859 0.1953 0.0000 0
M  V30 3 C 1.7578 0.1953 0.0000 0
M  V30 4 N -0.7812 1.3672 0.0000 0
M  V30 5 N 0.3906 -0.5859 0.0000 0
M  V30 6 N 2.7344 -0.5859 0.0000 0
M  V30 7 O -3.1250 -0.3906 0.0000 0
M  V30 8 H -1.5625 -1.9531 0.0000 0
M  V30 9 H -1.5625 1.7578 0.0000 0
M  V30 10 H 0.5859 -1.7578 0.0000 0
M  V30 11 H 1.7578 1.1719 0.0000 0
M  V30 12 H 3.5156 0.1953 0.0000 0
M  V30 END ATOM
M  V30 BEGIN BOND
M  V30 1 1 1 2
M  V30 2 2 1 7
M  V30 3 1 1 8
M  V30 4 3 2 4
M  V30 5 3 2 5
M  V30 6 3 3 5
M  V30 7 3 3 6
M  V30 8 1 3 11
M  V30 9 1 4 9
M  V30 10 1 5 10
M  V30 11 1 6 12
M  V30 END BOND
M  V30 END CTAB
M  END
>  <ID>
484
$$$$
Structure_485
Score 	 14.0, smilesprid 	smiles	 smilestrue 	smiles	 similartanimoto 	0	 similardice 	0

   12   11  0  0  0  0            999 V3000
M  V30 BEGIN CTAB
M  V30 COUNTS 12 11 0 0 0
M  V30 BEGIN ATOM
M  V30 1 C -1.7578 -0.7812 0.0000 0
M  V30 2 C -0.5859 0.1953 0.0000 0
M  V30 3 C 1.7578 0.1953 0.0000 0
M  V30 4 N -0.7812 1.3672 0.0000 0
M  V30 5 N 0.3906 -0.5859 0.0000 0
M  V30 6 N 2.7344 -0.5859 0.0000 0
M  V30 7 O -3.1250 -0.3906 0.0000 0
M  V30 8 H -1.5625 -1.9531 0.0000 0
M  V30 9 H -1.5625 1.7578 0.0000 0
M  V30 10 H 0.5859 -1.7578 0.0000 0
M  V30 11 H 1.7578 1.1719 0.0000 0
M  V30 12 H 3.5156 0.1953 0.0000 0
M  V30 END ATOM
M  V30 BEGIN BOND
M  V30 1 2 1 2
M  V30 2 2 1 7
M  V30 3 1 1 8
M  V30 4 3 2 4
M  V30 5 3 2 5
M  V30 6 3 3 5
M  V30 7 3 3 6
M  V30 8 1 3 11
M  V30 9 1 4 9
M  V30 10 1 5 10
M  V30 11 1 6 12
M  V30 END BOND
M  V30 END CTAB
M  END
>  <ID>
485
$$$$
Structure_486
Score 	 16.0, smilesprid 	smiles	 smilestrue 	smiles	 similartanimoto 	0	 similardice 	0

   12   11  0  0  0  0            999 V3000
M  V30 BEGIN CTAB
M  V30 COUNTS 12 11 0 0 0
M  V30 BEGIN ATOM
M  V30 1 C -1.7578 -0.7812 0.0000 0
M  V30 2 C -0.5859 0.1953 0.0000 0
M  V30 3 C 1.7578 0.1953 0.0000 0
M  V30 4 N -0.7812 1.3672 0.0000 0
M  V30 5 N 0.3906 -0.5859 0.0000 0
M  V30 6 N 2.7344 -0.5859 0.0000 0
M  V30 7 O -3.1250 -0.3906 0.0000 0
M  V30 8 H -1.5625 -1.9531 0.0000 0
M  V30 9 H -1.5625 1.7578 0.0000 0
M  V30 10 H 0.5859 -1.7578 0.0000 0
M  V30 11 H 1.7578 1.1719 0.0000 0
M  V30 12 H 3.5156 0.1953 0.0000 0
M  V30 END ATOM
M  V30 BEGIN BOND
M  V30 1 3 1 2
M  V30 2 2 1 7
M  V30 3 1 1 8
M  V30 4 3 2 4
M  V30 5 3 2 5
M  V30 6 3 3 5
M  V30 7 3 3 6
M  V30 8 1 3 11
M  V30 9 1 4 9
M  V30 10 1 5 10
M  V30 11 1 6 12
M  V30 END BOND
M  V30 END CTAB
M  END
>  <ID>
486
$$$$