Structure_2461
Score 	 0.0, smilesprid 	smiles	 smilestrue 	smiles	 similartanimoto 	0	 similardice 	0

   15   16  0  0  0  0            999 V3000
M  V30 BEGIN CTAB
M  V30 COUNTS 15 16 0 0 0
M  V30 BEGIN ATOM
M  V30 1 C -2.5391 -0.1953 0.0000 0
M  V30 2 C -1.7578 -1.3672 0.0000 0
M  V30 3 C -1.7578 0.9766 0.0000 0
M  V30 4 C -0.3906 -0.7812 0.0000 0
M  V30 5 C -0.3906 0.5859 0.0000 0
M  V30 6 C 0.7812 1.1719 0.0000 0
M  V30 7 C 1.9531 -0.7812 0.0000 0
M  V30 8 N 0.7812 -1.5625 0.0000 0
M  V30 9 N 1.9531 0.3906 0.0000 0
M  V30 10 H -3.5156 -0.1953 0.0000 0
M  V30 11 H -2.1484 2.1484 0.0000 0
M  V30 12 H -1.9531 -2.3438 0.0000 0
M  V30 13 H 0.9766 2.3438 0.0000 0
M  V30 14 H 2.9297 -1.3672 0.0000 0
M  V30 15 H 2.7344 0.9766 0.0000 0
M  V30 END ATOM
M  V30 BEGIN BOND
M  V30 1 1 1 2
M  V30 2 2 1 3
M  V30 3 1 1 10
M  V30 4 2 2 4
M  V30 5 1 2 12
M  V30 6 1 3 5
M  V30 7 1 3 11
M  V30 8 1 4 5
M  V30 9 1 4 8
M  V30 10 2 5 6
M  V30 11 1 6 9
M  V30 12 1 6 13
M  V30 13 2 7 8
M  V30 14 1 7 9
M  V30 15 1 7 14
M  V30 16 1 9 15
M  V30 END BOND
M  V30 END CTAB
M  END
>  <ID>
2461
$$$$
Structure_1
Score 	 8.0, smilesprid 	smiles	 smilestrue 	smiles	 similartanimoto 	0	 similardice 	0

   15   16  0  0  0  0            999 V3000
M  V30 BEGIN CTAB
M  V30 COUNTS 15 16 0 0 0
M  V30 BEGIN ATOM
M  V30 1 C -2.5391 -0.1953 0.0000 0
M  V30 2 C -1.7578 -1.3672 0.0000 0
M  V30 3 C -1.7578 0.9766 0.0000 0
M  V30 4 C -0.3906 -0.7812 0.0000 0
M  V30 5 C -0.3906 0.5859 0.0000 0
M  V30 6 C 0.7812 1.1719 0.0000 0
M  V30 7 C 1.9531 -0.7812 0.0000 0
M  V30 8 N 0.7812 -1.5625 0.0000 0
M  V30 9 N 1.9531 0.3906 0.0000 0
M  V30 10 H -3.5156 -0.1953 0.0000 0
M  V30 11 H -2.1484 2.1484 0.0000 0
M  V30 12 H -1.9531 -2.3438 0.0000 0
M  V30 13 H 0.9766 2.3438 0.0000 0
M  V30 14 H 2.9297 -1.3672 0.0000 0
M  V30 15 H 2.7344 0.9766 0.0000 0
M  V30 END ATOM
M  V30 BEGIN BOND
M  V30 1 1 1 2
M  V30 2 1 1 3
M  V30 3 1 1 10
M  V30 4 1 2 4
M  V30 5 1 2 12
M  V30 6 1 3 5
M  V30 7 1 3 11
M  V30 8 1 4 5
M  V30 9 1 4 8
M  V30 10 1 5 6
M  V30 11 1 6 9
M  V30 12 1 6 13
M  V30 13 1 7 8
M  V30 14 1 7 9
M  V30 15 1 7 14
M  V30 16 1 9 15
M  V30 END BOND
M  V30 END CTAB
M  END
>  <ID>
1
$$$$
Structure_2
Score 	 6.0, smilesprid 	smiles	 smilestrue 	smiles	 similartanimoto 	0	 similardice 	0

   15   16  0  0  0  0            999 V3000
M  V30 BEGIN CTAB
M  V30 COUNTS 15 16 0 0 0
M  V30 BEGIN ATOM
M  V30 1 C -2.5391 -0.1953 0.0000 0
M  V30 2 C -1.7578 -1.3672 0.0000 0
M  V30 3 C -1.7578 0.9766 0.0000 0
M  V30 4 C -0.3906 -0.7812 0.0000 0
M  V30 5 C -0.3906 0.5859 0.0000 0
M  V30 6 C 0.7812 1.1719 0.0000 0
M  V30 7 C 1.9531 -0.7812 0.0000 0
M  V30 8 N 0.7812 -1.5625 0.0000 0
M  V30 9 N 1.9531 0.3906 0.0000 0
M  V30 10 H -3.5156 -0.1953 0.0000 0
M  V30 11 H -2.1484 2.1484 0.0000 0
M  V30 12 H -1.9531 -2.3438 0.0000 0
M  V30 13 H 0.9766 2.3438 0.0000 0
M  V30 14 H 2.9297 -1.3672 0.0000 0
M  V30 15 H 2.7344 0.9766 0.0000 0
M  V30 END ATOM
M  V30 BEGIN BOND
M  V30 1 2 1 2
M  V30 2 1 1 3
M  V30 3 1 1 10
M  V30 4 1 2 4
M  V30 5 1 2 12
M  V30 6 1 3 5
M  V30 7 1 3 11
M  V30 8 1 4 5
M  V30 9 1 4 8
M  V30 10 1 5 6
M  V30 11 1 6 9
M  V30 12 1 6 13
M  V30 13 1 7 8
M  V30 14 1 7 9
M  V30 15 1 7 14
M  V30 16 1 9 15
M  V30 END BOND
M  V30 END CTAB
M  END
>  <ID>
2
$$$$
Structure_3
Score 	 8.0, smilesprid 	smiles	 smilestrue 	smiles	 similartanimoto 	0	 similardice 	0

   15   16  0  0  0  0            999 V3000
M  V30 BEGIN CTAB
M  V30 COUNTS 15 16 0 0 0
M  V30 BEGIN ATOM
M  V30 1 C -2.5391 -0.1953 0.0000 0
M  V30 2 C -1.7578 -1.3672 0.0000 0
M  V30 3 C -1.7578 0.9766 0.0000 0
M  V30 4 C -0.3906 -0.7812 0.0000 0
M  V30 5 C -0.3906 0.5859 0.0000 0
M  V30 6 C 0.7812 1.1719 0.0000 0
M  V30 7 C 1.9531 -0.7812 0.0000 0
M  V30 8 N 0.7812 -1.5625 0.0000 0
M  V30 9 N 1.9531 0.3906 0.0000 0
M  V30 10 H -3.5156 -0.1953 0.0000 0
M  V30 11 H -2.1484 2.1484 0.0000 0
M  V30 12 H -1.9531 -2.3438 0.0000 0
M  V30 13 H 0.9766 2.3438 0.0000 0
M  V30 14 H 2.9297 -1.3672 0.0000 0
M  V30 15 H 2.7344 0.9766 0.0000 0
M  V30 END ATOM
M  V30 BEGIN BOND
M  V30 1 3 1 2
M  V30 2 1 1 3
M  V30 3 1 1 10
M  V30 4 1 2 4
M  V30 5 1 2 12
M  V30 6 1 3 5
M  V30 7 1 3 11
M  V30 8 1 4 5
M  V30 9 1 4 8
M  V30 10 1 5 6
M  V30 11 1 6 9
M  V30 12 1 6 13
M  V30 13 1 7 8
M  V30 14 1 7 9
M  V30 15 1 7 14
M  V30 16 1 9 15
M  V30 END BOND
M  V30 END CTAB
M  END
>  <ID>
3
$$$$
Structure_4
Score 	 6.0, smilesprid 	smiles	 smilestrue 	smiles	 similartanimoto 	0	 similardice 	0

   15   16  0  0  0  0            999 V3000
M  V30 BEGIN CTAB
M  V30 COUNTS 15 16 0 0 0
M  V30 BEGIN ATOM
M  V30 1 C -2.5391 -0.1953 0.0000 0
M  V30 2 C -1.7578 -1.3672 0.0000 0
M  V30 3 C -1.7578 0.9766 0.0000 0
M  V30 4 C -0.3906 -0.7812 0.0000 0
M  V30 5 C -0.3906 0.5859 0.0000 0
M  V30 6 C 0.7812 1.1719 0.0000 0
M  V30 7 C 1.9531 -0.7812 0.0000 0
M  V30 8 N 0.7812 -1.5625 0.0000 0
M  V30 9 N 1.9531 0.3906 0.0000 0
M  V30 10 H -3.5156 -0.1953 0.0000 0
M  V30 11 H -2.1484 2.1484 0.0000 0
M  V30 12 H -1.9531 -2.3438 0.0000 0
M  V30 13 H 0.9766 2.3438 0.0000 0
M  V30 14 H 2.9297 -1.3672 0.0000 0
M  V30 15 H 2.7344 0.9766 0.0000 0
M  V30 END ATOM
M  V30 BEGIN BOND
M  V30 1 1 1 2
M  V30 2 2 1 3
M  V30 3 1 1 10
M  V30 4 1 2 4
M  V30 5 1 2 12
M  V30 6 1 3 5
M  V30 7 1 3 11
M  V30 8 1 4 5
M  V30 9 1 4 8
M  V30 10 1 5 6
M  V30 11 1 6 9
M  V30 12 1 6 13
M  V30 13 1 7 8
M  V30 14 1 7 9
M  V30 15 1 7 14
M  V30 16 1 9 15
M  V30 END BOND
M  V30 END CTAB
M  END
>  <ID>
4
$$$$
Structure_5
Score 	 6.0, smilesprid 	smiles	 smilestrue 	smiles	 similartanimoto 	0	 similardice 	0

   15   16  0  0  0  0            999 V3000
M  V30 BEGIN CTAB
M  V30 COUNTS 15 16 0 0 0
M  V30 BEGIN ATOM
M  V30 1 C -2.5391 -0.1953 0.0000 0
M  V30 2 C -1.7578 -1.3672 0.0000 0
M  V30 3 C -1.7578 0.9766 0.0000 0
M  V30 4 C -0.3906 -0.7812 0.0000 0
M  V30 5 C -0.3906 0.5859 0.0000 0
M  V30 6 C 0.7812 1.1719 0.0000 0
M  V30 7 C 1.9531 -0.7812 0.0000 0
M  V30 8 N 0.7812 -1.5625 0.0000 0
M  V30 9 N 1.9531 0.3906 0.0000 0
M  V30 10 H -3.5156 -0.1953 0.0000 0
M  V30 11 H -2.1484 2.1484 0.0000 0
M  V30 12 H -1.9531 -2.3438 0.0000 0
M  V30 13 H 0.9766 2.3438 0.0000 0
M  V30 14 H 2.9297 -1.3672 0.0000 0
M  V30 15 H 2.7344 0.9766 0.0000 0
M  V30 END ATOM
M  V30 BEGIN BOND
M  V30 1 2 1 2
M  V30 2 2 1 3
M  V30 3 1 1 10
M  V30 4 1 2 4
M  V30 5 1 2 12
M  V30 6 1 3 5
M  V30 7 1 3 11
M  V30 8 1 4 5
M  V30 9 1 4 8
M  V30 10 1 5 6
M  V30 11 1 6 9
M  V30 12 1 6 13
M  V30 13 1 7 8
M  V30 14 1 7 9
M  V30 15 1 7 14
M  V30 16 1 9 15
M  V30 END BOND
M  V30 END CTAB
M  END
>  <ID>
5
$$$$
Structure_6
Score 	 8.0, smilesprid 	smiles	 smilestrue 	smiles	 similartanimoto 	0	 similardice 	0

   15   16  0  0  0  0            999 V3000
M  V30 BEGIN CTAB
M  V30 COUNTS 15 16 0 0 0
M  V30 BEGIN ATOM
M  V30 1 C -2.5391 -0.1953 0.0000 0
M  V30 2 C -1.7578 -1.3672 0.0000 0
M  V30 3 C -1.7578 0.9766 0.0000 0
M  V30 4 C -0.3906 -0.7812 0.0000 0
M  V30 5 C -0.3906 0.5859 0.0000 0
M  V30 6 C 0.7812 1.1719 0.0000 0
M  V30 7 C 1.9531 -0.7812 0.0000 0
M  V30 8 N 0.7812 -1.5625 0.0000 0
M  V30 9 N 1.9531 0.3906 0.0000 0
M  V30 10 H -3.5156 -0.1953 0.0000 0
M  V30 11 H -2.1484 2.1484 0.0000 0
M  V30 12 H -1.9531 -2.3438 0.0000 0
M  V30 13 H 0.9766 2.3438 0.0000 0
M  V30 14 H 2.9297 -1.3672 0.0000 0
M  V30 15 H 2.7344 0.9766 0.0000 0
M  V30 END ATOM
M  V30 BEGIN BOND
M  V30 1 3 1 2
M  V30 2 2 1 3
M  V30 3 1 1 10
M  V30 4 1 2 4
M  V30 5 1 2 12
M  V30 6 1 3 5
M  V30 7 1 3 11
M  V30 8 1 4 5
M  V30 9 1 4 8
M  V30 10 1 5 6
M  V30 11 1 6 9
M  V30 12 1 6 13
M  V30 13 1 7 8
M  V30 14 1 7 9
M  V30 15 1 7 14
M  V30 16 1 9 15
M  V30 END BOND
M  V30 END CTAB
M  END
>  <ID>
6
$$$$
Structure_7
Score 	 8.0, smilesprid 	smiles	 smilestrue 	smiles	 similartanimoto 	0	 similardice 	0

   15   16  0  0  0  0            999 V3000
M  V30 BEGIN CTAB
M  V30 COUNTS 15 16 0 0 0
M  V30 BEGIN ATOM
M  V30 1 C -2.5391 -0.1953 0.0000 0
M  V30 2 C -1.7578 -1.3672 0.0000 0
M  V30 3 C -1.7578 0.9766 0.0000 0
M  V30 4 C -0.3906 -0.7812 0.0000 0
M  V30 5 C -0.3906 0.5859 0.0000 0
M  V30 6 C 0.7812 1.1719 0.0000 0
M  V30 7 C 1.9531 -0.7812 0.0000 0
M  V30 8 N 0.7812 -1.5625 0.0000 0
M  V30 9 N 1.9531 0.3906 0.0000 0
M  V30 10 H -3.5156 -0.1953 0.0000 0
M  V30 11 H -2.1484 2.1484 0.0000 0
M  V30 12 H -1.9531 -2.3438 0.0000 0
M  V30 13 H 0.9766 2.3438 0.0000 0
M  V30 14 H 2.9297 -1.3672 0.0000 0
M  V30 15 H 2.7344 0.9766 0.0000 0
M  V30 END ATOM
M  V30 BEGIN BOND
M  V30 1 1 1 2
M  V30 2 3 1 3
M  V30 3 1 1 10
M  V30 4 1 2 4
M  V30 5 1 2 12
M  V30 6 1 3 5
M  V30 7 1 3 11
M  V30 8 1 4 5
M  V30 9 1 4 8
M  V30 10 1 5 6
M  V30 11 1 6 9
M  V30 12 1 6 13
M  V30 13 1 7 8
M  V30 14 1 7 9
M  V30 15 1 7 14
M  V30 16 1 9 15
M  V30 END BOND
M  V30 END CTAB
M  END
>  <ID>
7
$$$$
Structure_8
Score 	 8.0, smilesprid 	smiles	 smilestrue 	smiles	 similartanimoto 	0	 similardice 	0

   15   16  0  0  0  0            999 V3000
M  V30 BEGIN CTAB
M  V30 COUNTS 15 16 0 0 0
M  V30 BEGIN ATOM
M  V30 1 C -2.5391 -0.1953 0.0000 0
M  V30 2 C -1.7578 -1.3672 0.0000 0
M  V30 3 C -1.7578 0.9766 0.0000 0
M  V30 4 C -0.3906 -0.7812 0.0000 0
M  V30 5 C -0.3906 0.5859 0.0000 0
M  V30 6 C 0.7812 1.1719 0.0000 0
M  V30 7 C 1.9531 -0.7812 0.0000 0
M  V30 8 N 0.7812 -1.5625 0.0000 0
M  V30 9 N 1.9531 0.3906 0.0000 0
M  V30 10 H -3.5156 -0.1953 0.0000 0
M  V30 11 H -2.1484 2.1484 0.0000 0
M  V30 12 H -1.9531 -2.3438 0.0000 0
M  V30 13 H 0.9766 2.3438 0.0000 0
M  V30 14 H 2.9297 -1.3672 0.0000 0
M  V30 15 H 2.7344 0.9766 0.0000 0
M  V30 END ATOM
M  V30 BEGIN BOND
M  V30 1 2 1 2
M  V30 2 3 1 3
M  V30 3 1 1 10
M  V30 4 1 2 4
M  V30 5 1 2 12
M  V30 6 1 3 5
M  V30 7 1 3 11
M  V30 8 1 4 5
M  V30 9 1 4 8
M  V30 10 1 5 6
M  V30 11 1 6 9
M  V30 12 1 6 13
M  V30 13 1 7 8
M  V30 14 1 7 9
M  V30 15 1 7 14
M  V30 16 1 9 15
M  V30 END BOND
M  V30 END CTAB
M  END
>  <ID>
8
$$$$
Structure_9
Score 	 10.0, smilesprid 	smiles	 smilestrue 	smiles	 similartanimoto 	0	 similardice 	0

   15   16  0  0  0  0            999 V3000
M  V30 BEGIN CTAB
M  V30 COUNTS 15 16 0 0 0
M  V30 BEGIN ATOM
M  V30 1 C -2.5391 -0.1953 0.0000 0
M  V30 2 C -1.7578 -1.3672 0.0000 0
M  V30 3 C -1.7578 0.9766 0.0000 0
M  V30 4 C -0.3906 -0.7812 0.0000 0
M  V30 5 C -0.3906 0.5859 0.0000 0
M  V30 6 C 0.7812 1.1719 0.0000 0
M  V30 7 C 1.9531 -0.7812 0.0000 0
M  V30 8 N 0.7812 -1.5625 0.0000 0
M  V30 9 N 1.9531 0.3906 0.0000 0
M  V30 10 H -3.5156 -0.1953 0.0000 0
M  V30 11 H -2.1484 2.1484 0.0000 0
M  V30 12 H -1.9531 -2.3438 0.0000 0
M  V30 13 H 0.9766 2.3438 0.0000 0
M  V30 14 H 2.9297 -1.3672 0.0000 0
M  V30 15 H 2.7344 0.9766 0.0000 0
M  V30 END ATOM
M  V30 BEGIN BOND
M  V30 1 3 1 2
M  V30 2 3 1 3
M  V30 3 1 1 10
M  V30 4 1 2 4
M  V30 5 1 2 12
M  V30 6 1 3 5
M  V30 7 1 3 11
M  V30 8 1 4 5
M  V30 9 1 4 8
M  V30 10 1 5 6
M  V30 11 1 6 9
M  V30 12 1 6 13
M  V30 13 1 7 8
M  V30 14 1 7 9
M  V30 15 1 7 14
M  V30 16 1 9 15
M  V30 END BOND
M  V30 END CTAB
M  END
>  <ID>
9
$$$$
Structure_10
Score 	 6.0, smilesprid 	smiles	 smilestrue 	smiles	 similartanimoto 	0	 similardice 	0

   15   16  0  0  0  0            999 V3000
M  V30 BEGIN CTAB
M  V30 COUNTS 15 16 0 0 0
M  V30 BEGIN ATOM
M  V30 1 C -2.5391 -0.1953 0.0000 0
M  V30 2 C -1.7578 -1.3672 0.0000 0
M  V30 3 C -1.7578 0.9766 0.0000 0
M  V30 4 C -0.3906 -0.7812 0.0000 0
M  V30 5 C -0.3906 0.5859 0.0000 0
M  V30 6 C 0.7812 1.1719 0.0000 0
M  V30 7 C 1.9531 -0.7812 0.0000 0
M  V30 8 N 0.7812 -1.5625 0.0000 0
M  V30 9 N 1.9531 0.3906 0.0000 0
M  V30 10 H -3.5156 -0.1953 0.0000 0
M  V30 11 H -2.1484 2.1484 0.0000 0
M  V30 12 H -1.9531 -2.3438 0.0000 0
M  V30 13 H 0.9766 2.3438 0.0000 0
M  V30 14 H 2.9297 -1.3672 0.0000 0
M  V30 15 H 2.7344 0.9766 0.0000 0
M  V30 END ATOM
M  V30 BEGIN BOND
M  V30 1 1 1 2
M  V30 2 1 1 3
M  V30 3 1 1 10
M  V30 4 1 2 4
M  V30 5 1 2 12
M  V30 6 2 3 5
M  V30 7 1 3 11
M  V30 8 1 4 5
M  V30 9 1 4 8
M  V30 10 1 5 6
M  V30 11 1 6 9
M  V30 12 1 6 13
M  V30 13 1 7 8
M  V30 14 1 7 9
M  V30 15 1 7 14
M  V30 16 1 9 15
M  V30 END BOND
M  V30 END CTAB
M  END
>  <ID>
10
$$$$
Structure_11
Score 	 4.0, smilesprid 	smiles	 smilestrue 	smiles	 similartanimoto 	0	 similardice 	0

   15   16  0  0  0  0            999 V3000
M  V30 BEGIN CTAB
M  V30 COUNTS 15 16 0 0 0
M  V30 BEGIN ATOM
M  V30 1 C -2.5391 -0.1953 0.0000 0
M  V30 2 C -1.7578 -1.3672 0.0000 0
M  V30 3 C -1.7578 0.9766 0.0000 0
M  V30 4 C -0.3906 -0.7812 0.0000 0
M  V30 5 C -0.3906 0.5859 0.0000 0
M  V30 6 C 0.7812 1.1719 0.0000 0
M  V30 7 C 1.9531 -0.7812 0.0000 0
M  V30 8 N 0.7812 -1.5625 0.0000 0
M  V30 9 N 1.9531 0.3906 0.0000 0
M  V30 10 H -3.5156 -0.1953 0.0000 0
M  V30 11 H -2.1484 2.1484 0.0000 0
M  V30 12 H -1.9531 -2.3438 0.0000 0
M  V30 13 H 0.9766 2.3438 0.0000 0
M  V30 14 H 2.9297 -1.3672 0.0000 0
M  V30 15 H 2.7344 0.9766 0.0000 0
M  V30 END ATOM
M  V30 BEGIN BOND
M  V30 1 2 1 2
M  V30 2 1 1 3
M  V30 3 1 1 10
M  V30 4 1 2 4
M  V30 5 1 2 12
M  V30 6 2 3 5
M  V30 7 1 3 11
M  V30 8 1 4 5
M  V30 9 1 4 8
M  V30 10 1 5 6
M  V30 11 1 6 9
M  V30 12 1 6 13
M  V30 13 1 7 8
M  V30 14 1 7 9
M  V30 15 1 7 14
M  V30 16 1 9 15
M  V30 END BOND
M  V30 END CTAB
M  END
>  <ID>
11
$$$$
Structure_12
Score 	 6.0, smilesprid 	smiles	 smilestrue 	smiles	 similartanimoto 	0	 similardice 	0

   15   16  0  0  0  0            999 V3000
M  V30 BEGIN CTAB
M  V30 COUNTS 15 16 0 0 0
M  V30 BEGIN ATOM
M  V30 1 C -2.5391 -0.1953 0.0000 0
M  V30 2 C -1.7578 -1.3672 0.0000 0
M  V30 3 C -1.7578 0.9766 0.0000 0
M  V30 4 C -0.3906 -0.7812 0.0000 0
M  V30 5 C -0.3906 0.5859 0.0000 0
M  V30 6 C 0.7812 1.1719 0.0000 0
M  V30 7 C 1.9531 -0.7812 0.0000 0
M  V30 8 N 0.7812 -1.5625 0.0000 0
M  V30 9 N 1.9531 0.3906 0.0000 0
M  V30 10 H -3.5156 -0.1953 0.0000 0
M  V30 11 H -2.1484 2.1484 0.0000 0
M  V30 12 H -1.9531 -2.3438 0.0000 0
M  V30 13 H 0.9766 2.3438 0.0000 0
M  V30 14 H 2.9297 -1.3672 0.0000 0
M  V30 15 H 2.7344 0.9766 0.0000 0
M  V30 END ATOM
M  V30 BEGIN BOND
M  V30 1 3 1 2
M  V30 2 1 1 3
M  V30 3 1 1 10
M  V30 4 1 2 4
M  V30 5 1 2 12
M  V30 6 2 3 5
M  V30 7 1 3 11
M  V30 8 1 4 5
M  V30 9 1 4 8
M  V30 10 1 5 6
M  V30 11 1 6 9
M  V30 12 1 6 13
M  V30 13 1 7 8
M  V30 14 1 7 9
M  V30 15 1 7 14
M  V30 16 1 9 15
M  V30 END BOND
M  V30 END CTAB
M  END
>  <ID>
12
$$$$
Structure_13
Score 	 6.0, smilesprid 	smiles	 smilestrue 	smiles	 similartanimoto 	0	 similardice 	0

   15   16  0  0  0  0            999 V3000
M  V30 BEGIN CTAB
M  V30 COUNTS 15 16 0 0 0
M  V30 BEGIN ATOM
M  V30 1 C -2.5391 -0.1953 0.0000 0
M  V30 2 C -1.7578 -1.3672 0.0000 0
M  V30 3 C -1.7578 0.9766 0.0000 0
M  V30 4 C -0.3906 -0.7812 0.0000 0
M  V30 5 C -0.3906 0.5859 0.0000 0
M  V30 6 C 0.7812 1.1719 0.0000 0
M  V30 7 C 1.9531 -0.7812 0.0000 0
M  V30 8 N 0.7812 -1.5625 0.0000 0
M  V30 9 N 1.9531 0.3906 0.0000 0
M  V30 10 H -3.5156 -0.1953 0.0000 0
M  V30 11 H -2.1484 2.1484 0.0000 0
M  V30 12 H -1.9531 -2.3438 0.0000 0
M  V30 13 H 0.9766 2.3438 0.0000 0
M  V30 14 H 2.9297 -1.3672 0.0000 0
M  V30 15 H 2.7344 0.9766 0.0000 0
M  V30 END ATOM
M  V30 BEGIN BOND
M  V30 1 1 1 2
M  V30 2 2 1 3
M  V30 3 1 1 10
M  V30 4 1 2 4
M  V30 5 1 2 12
M  V30 6 2 3 5
M  V30 7 1 3 11
M  V30 8 1 4 5
M  V30 9 1 4 8
M  V30 10 1 5 6
M  V30 11 1 6 9
M  V30 12 1 6 13
M  V30 13 1 7 8
M  V30 14 1 7 9
M  V30 15 1 7 14
M  V30 16 1 9 15
M  V30 END BOND
M  V30 END CTAB
M  END
>  <ID>
13
$$$$
Structure_14
Score 	 6.0, smilesprid 	smiles	 smilestrue 	smiles	 similartanimoto 	0	 similardice 	0

   15   16  0  0  0  0            999 V3000
M  V30 BEGIN CTAB
M  V30 COUNTS 15 16 0 0 0
M  V30 BEGIN ATOM
M  V30 1 C -2.5391 -0.1953 0.0000 0
M  V30 2 C -1.7578 -1.3672 0.0000 0
M  V30 3 C -1.7578 0.9766 0.0000 0
M  V30 4 C -0.3906 -0.7812 0.0000 0
M  V30 5 C -0.3906 0.5859 0.0000 0
M  V30 6 C 0.7812 1.1719 0.0000 0
M  V30 7 C 1.9531 -0.7812 0.0000 0
M  V30 8 N 0.7812 -1.5625 0.0000 0
M  V30 9 N 1.9531 0.3906 0.0000 0
M  V30 10 H -3.5156 -0.1953 0.0000 0
M  V30 11 H -2.1484 2.1484 0.0000 0
M  V30 12 H -1.9531 -2.3438 0.0000 0
M  V30 13 H 0.9766 2.3438 0.0000 0
M  V30 14 H 2.9297 -1.3672 0.0000 0
M  V30 15 H 2.7344 0.9766 0.0000 0
M  V30 END ATOM
M  V30 BEGIN BOND
M  V30 1 2 1 2
M  V30 2 2 1 3
M  V30 3 1 1 10
M  V30 4 1 2 4
M  V30 5 1 2 12
M  V30 6 2 3 5
M  V30 7 1 3 11
M  V30 8 1 4 5
M  V30 9 1 4 8
M  V30 10 1 5 6
M  V30 11 1 6 9
M  V30 12 1 6 13
M  V30 13 1 7 8
M  V30 14 1 7 9
M  V30 15 1 7 14
M  V30 16 1 9 15
M  V30 END BOND
M  V30 END CTAB
M  END
>  <ID>
14
$$$$
Structure_15
Score 	 8.0, smilesprid 	smiles	 smilestrue 	smiles	 similartanimoto 	0	 similardice 	0

   15   16  0  0  0  0            999 V3000
M  V30 BEGIN CTAB
M  V30 COUNTS 15 16 0 0 0
M  V30 BEGIN ATOM
M  V30 1 C -2.5391 -0.1953 0.0000 0
M  V30 2 C -1.7578 -1.3672 0.0000 0
M  V30 3 C -1.7578 0.9766 0.0000 0
M  V30 4 C -0.3906 -0.7812 0.0000 0
M  V30 5 C -0.3906 0.5859 0.0000 0
M  V30 6 C 0.7812 1.1719 0.0000 0
M  V30 7 C 1.9531 -0.7812 0.0000 0
M  V30 8 N 0.7812 -1.5625 0.0000 0
M  V30 9 N 1.9531 0.3906 0.0000 0
M  V30 10 H -3.5156 -0.1953 0.0000 0
M  V30 11 H -2.1484 2.1484 0.0000 0
M  V30 12 H -1.9531 -2.3438 0.0000 0
M  V30 13 H 0.9766 2.3438 0.0000 0
M  V30 14 H 2.9297 -1.3672 0.0000 0
M  V30 15 H 2.7344 0.9766 0.0000 0
M  V30 END ATOM
M  V30 BEGIN BOND
M  V30 1 3 1 2
M  V30 2 2 1 3
M  V30 3 1 1 10
M  V30 4 1 2 4
M  V30 5 1 2 12
M  V30 6 2 3 5
M  V30 7 1 3 11
M  V30 8 1 4 5
M  V30 9 1 4 8
M  V30 10 1 5 6
M  V30 11 1 6 9
M  V30 12 1 6 13
M  V30 13 1 7 8
M  V30 14 1 7 9
M  V30 15 1 7 14
M  V30 16 1 9 15
M  V30 END BOND
M  V30 END CTAB
M  END
>  <ID>
15
$$$$
Structure_16
Score 	 8.0, smilesprid 	smiles	 smilestrue 	smiles	 similartanimoto 	0	 similardice 	0

   15   16  0  0  0  0            999 V3000
M  V30 BEGIN CTAB
M  V30 COUNTS 15 16 0 0 0
M  V30 BEGIN ATOM
M  V30 1 C -2.5391 -0.1953 0.0000 0
M  V30 2 C -1.7578 -1.3672 0.0000 0
M  V30 3 C -1.7578 0.9766 0.0000 0
M  V30 4 C -0.3906 -0.7812 0.0000 0
M  V30 5 C -0.3906 0.5859 0.0000 0
M  V30 6 C 0.7812 1.1719 0.0000 0
M  V30 7 C 1.9531 -0.7812 0.0000 0
M  V30 8 N 0.7812 -1.5625 0.0000 0
M  V30 9 N 1.9531 0.3906 0.0000 0
M  V30 10 H -3.5156 -0.1953 0.0000 0
M  V30 11 H -2.1484 2.1484 0.0000 0
M  V30 12 H -1.9531 -2.3438 0.0000 0
M  V30 13 H 0.9766 2.3438 0.0000 0
M  V30 14 H 2.9297 -1.3672 0.0000 0
M  V30 15 H 2.7344 0.9766 0.0000 0
M  V30 END ATOM
M  V30 BEGIN BOND
M  V30 1 1 1 2
M  V30 2 3 1 3
M  V30 3 1 1 10
M  V30 4 1 2 4
M  V30 5 1 2 12
M  V30 6 2 3 5
M  V30 7 1 3 11
M  V30 8 1 4 5
M  V30 9 1 4 8
M  V30 10 1 5 6
M  V30 11 1 6 9
M  V30 12 1 6 13
M  V30 13 1 7 8
M  V30 14 1 7 9
M  V30 15 1 7 14
M  V30 16 1 9 15
M  V30 END BOND
M  V30 END CTAB
M  END
>  <ID>
16
$$$$
Structure_17
Score 	 8.0, smilesprid 	smiles	 smilestrue 	smiles	 similartanimoto 	0	 similardice 	0

   15   16  0  0  0  0            999 V3000
M  V30 BEGIN CTAB
M  V30 COUNTS 15 16 0 0 0
M  V30 BEGIN ATOM
M  V30 1 C -2.5391 -0.1953 0.0000 0
M  V30 2 C -1.7578 -1.3672 0.0000 0
M  V30 3 C -1.7578 0.9766 0.0000 0
M  V30 4 C -0.3906 -0.7812 0.0000 0
M  V30 5 C -0.3906 0.5859 0.0000 0
M  V30 6 C 0.7812 1.1719 0.0000 0
M  V30 7 C 1.9531 -0.7812 0.0000 0
M  V30 8 N 0.7812 -1.5625 0.0000 0
M  V30 9 N 1.9531 0.3906 0.0000 0
M  V30 10 H -3.5156 -0.1953 0.0000 0
M  V30 11 H -2.1484 2.1484 0.0000 0
M  V30 12 H -1.9531 -2.3438 0.0000 0
M  V30 13 H 0.9766 2.3438 0.0000 0
M  V30 14 H 2.9297 -1.3672 0.0000 0
M  V30 15 H 2.7344 0.9766 0.0000 0
M  V30 END ATOM
M  V30 BEGIN BOND
M  V30 1 2 1 2
M  V30 2 3 1 3
M  V30 3 1 1 10
M  V30 4 1 2 4
M  V30 5 1 2 12
M  V30 6 2 3 5
M  V30 7 1 3 11
M  V30 8 1 4 5
M  V30 9 1 4 8
M  V30 10 1 5 6
M  V30 11 1 6 9
M  V30 12 1 6 13
M  V30 13 1 7 8
M  V30 14 1 7 9
M  V30 15 1 7 14
M  V30 16 1 9 15
M  V30 END BOND
M  V30 END CTAB
M  END
>  <ID>
17
$$$$
Structure_18
Score 	 10.0, smilesprid 	smiles	 smilestrue 	smiles	 similartanimoto 	0	 similardice 	0

   15   16  0  0  0  0            999 V3000
M  V30 BEGIN CTAB
M  V30 COUNTS 15 16 0 0 0
M  V30 BEGIN ATOM
M  V30 1 C -2.5391 -0.1953 0.0000 0
M  V30 2 C -1.7578 -1.3672 0.0000 0
M  V30 3 C -1.7578 0.9766 0.0000 0
M  V30 4 C -0.3906 -0.7812 0.0000 0
M  V30 5 C -0.3906 0.5859 0.0000 0
M  V30 6 C 0.7812 1.1719 0.0000 0
M  V30 7 C 1.9531 -0.7812 0.0000 0
M  V30 8 N 0.7812 -1.5625 0.0000 0
M  V30 9 N 1.9531 0.3906 0.0000 0
M  V30 10 H -3.5156 -0.1953 0.0000 0
M  V30 11 H -2.1484 2.1484 0.0000 0
M  V30 12 H -1.9531 -2.3438 0.0000 0
M  V30 13 H 0.9766 2.3438 0.0000 0
M  V30 14 H 2.9297 -1.3672 0.0000 0
M  V30 15 H 2.7344 0.9766 0.0000 0
M  V30 END ATOM
M  V30 BEGIN BOND
M  V30 1 3 1 2
M  V30 2 3 1 3
M  V30 3 1 1 10
M  V30 4 1 2 4
M  V30 5 1 2 12
M  V30 6 2 3 5
M  V30 7 1 3 11
M  V30 8 1 4 5
M  V30 9 1 4 8
M  V30 10 1 5 6
M  V30 11 1 6 9
M  V30 12 1 6 13
M  V30 13 1 7 8
M  V30 14 1 7 9
M  V30 15 1 7 14
M  V30 16 1 9 15
M  V30 END BOND
M  V30 END CTAB
M  END
>  <ID>
18
$$$$
Structure_19
Score 	 8.0, smilesprid 	smiles	 smilestrue 	smiles	 similartanimoto 	0	 similardice 	0

   15   16  0  0  0  0            999 V3000
M  V30 BEGIN CTAB
M  V30 COUNTS 15 16 0 0 0
M  V30 BEGIN ATOM
M  V30 1 C -2.5391 -0.1953 0.0000 0
M  V30 2 C -1.7578 -1.3672 0.0000 0
M  V30 3 C -1.7578 0.9766 0.0000 0
M  V30 4 C -0.3906 -0.7812 0.0000 0
M  V30 5 C -0.3906 0.5859 0.0000 0
M  V30 6 C 0.7812 1.1719 0.0000 0
M  V30 7 C 1.9531 -0.7812 0.0000 0
M  V30 8 N 0.7812 -1.5625 0.0000 0
M  V30 9 N 1.9531 0.3906 0.0000 0
M  V30 10 H -3.5156 -0.1953 0.0000 0
M  V30 11 H -2.1484 2.1484 0.0000 0
M  V30 12 H -1.9531 -2.3438 0.0000 0
M  V30 13 H 0.9766 2.3438 0.0000 0
M  V30 14 H 2.9297 -1.3672 0.0000 0
M  V30 15 H 2.7344 0.9766 0.0000 0
M  V30 END ATOM
M  V30 BEGIN BOND
M  V30 1 1 1 2
M  V30 2 1 1 3
M  V30 3 1 1 10
M  V30 4 1 2 4
M  V30 5 1 2 12
M  V30 6 3 3 5
M  V30 7 1 3 11
M  V30 8 1 4 5
M  V30 9 1 4 8
M  V30 10 1 5 6
M  V30 11 1 6 9
M  V30 12 1 6 13
M  V30 13 1 7 8
M  V30 14 1 7 9
M  V30 15 1 7 14
M  V30 16 1 9 15
M  V30 END BOND
M  V30 END CTAB
M  END
>  <ID>
19
$$$$
Structure_20
Score 	 6.0, smilesprid 	smiles	 smilestrue 	smiles	 similartanimoto 	0	 similardice 	0

   15   16  0  0  0  0            999 V3000
M  V30 BEGIN CTAB
M  V30 COUNTS 15 16 0 0 0
M  V30 BEGIN ATOM
M  V30 1 C -2.5391 -0.1953 0.0000 0
M  V30 2 C -1.7578 -1.3672 0.0000 0
M  V30 3 C -1.7578 0.9766 0.0000 0
M  V30 4 C -0.3906 -0.7812 0.0000 0
M  V30 5 C -0.3906 0.5859 0.0000 0
M  V30 6 C 0.7812 1.1719 0.0000 0
M  V30 7 C 1.9531 -0.7812 0.0000 0
M  V30 8 N 0.7812 -1.5625 0.0000 0
M  V30 9 N 1.9531 0.3906 0.0000 0
M  V30 10 H -3.5156 -0.1953 0.0000 0
M  V30 11 H -2.1484 2.1484 0.0000 0
M  V30 12 H -1.9531 -2.3438 0.0000 0
M  V30 13 H 0.9766 2.3438 0.0000 0
M  V30 14 H 2.9297 -1.3672 0.0000 0
M  V30 15 H 2.7344 0.9766 0.0000 0
M  V30 END ATOM
M  V30 BEGIN BOND
M  V30 1 2 1 2
M  V30 2 1 1 3
M  V30 3 1 1 10
M  V30 4 1 2 4
M  V30 5 1 2 12
M  V30 6 3 3 5
M  V30 7 1 3 11
M  V30 8 1 4 5
M  V30 9 1 4 8
M  V30 10 1 5 6
M  V30 11 1 6 9
M  V30 12 1 6 13
M  V30 13 1 7 8
M  V30 14 1 7 9
M  V30 15 1 7 14
M  V30 16 1 9 15
M  V30 END BOND
M  V30 END CTAB
M  END
>  <ID>
20
$$$$
Structure_21
Score 	 8.0, smilesprid 	smiles	 smilestrue 	smiles	 similartanimoto 	0	 similardice 	0

   15   16  0  0  0  0            999 V3000
M  V30 BEGIN CTAB
M  V30 COUNTS 15 16 0 0 0
M  V30 BEGIN ATOM
M  V30 1 C -2.5391 -0.1953 0.0000 0
M  V30 2 C -1.7578 -1.3672 0.0000 0
M  V30 3 C -1.7578 0.9766 0.0000 0
M  V30 4 C -0.3906 -0.7812 0.0000 0
M  V30 5 C -0.3906 0.5859 0.0000 0
M  V30 6 C 0.7812 1.1719 0.0000 0
M  V30 7 C 1.9531 -0.7812 0.0000 0
M  V30 8 N 0.7812 -1.5625 0.0000 0
M  V30 9 N 1.9531 0.3906 0.0000 0
M  V30 10 H -3.5156 -0.1953 0.0000 0
M  V30 11 H -2.1484 2.1484 0.0000 0
M  V30 12 H -1.9531 -2.3438 0.0000 0
M  V30 13 H 0.9766 2.3438 0.0000 0
M  V30 14 H 2.9297 -1.3672 0.0000 0
M  V30 15 H 2.7344 0.9766 0.0000 0
M  V30 END ATOM
M  V30 BEGIN BOND
M  V30 1 3 1 2
M  V30 2 1 1 3
M  V30 3 1 1 10
M  V30 4 1 2 4
M  V30 5 1 2 12
M  V30 6 3 3 5
M  V30 7 1 3 11
M  V30 8 1 4 5
M  V30 9 1 4 8
M  V30 10 1 5 6
M  V30 11 1 6 9
M  V30 12 1 6 13
M  V30 13 1 7 8
M  V30 14 1 7 9
M  V30 15 1 7 14
M  V30 16 1 9 15
M  V30 END BOND
M  V30 END CTAB
M  END
>  <ID>
21
$$$$
Structure_22
Score 	 8.0, smilesprid 	smiles	 smilestrue 	smiles	 similartanimoto 	0	 similardice 	0

   15   16  0  0  0  0            999 V3000
M  V30 BEGIN CTAB
M  V30 COUNTS 15 16 0 0 0
M  V30 BEGIN ATOM
M  V30 1 C -2.5391 -0.1953 0.0000 0
M  V30 2 C -1.7578 -1.3672 0.0000 0
M  V30 3 C -1.7578 0.9766 0.0000 0
M  V30 4 C -0.3906 -0.7812 0.0000 0
M  V30 5 C -0.3906 0.5859 0.0000 0
M  V30 6 C 0.7812 1.1719 0.0000 0
M  V30 7 C 1.9531 -0.7812 0.0000 0
M  V30 8 N 0.7812 -1.5625 0.0000 0
M  V30 9 N 1.9531 0.3906 0.0000 0
M  V30 10 H -3.5156 -0.1953 0.0000 0
M  V30 11 H -2.1484 2.1484 0.0000 0
M  V30 12 H -1.9531 -2.3438 0.0000 0
M  V30 13 H 0.9766 2.3438 0.0000 0
M  V30 14 H 2.9297 -1.3672 0.0000 0
M  V30 15 H 2.7344 0.9766 0.0000 0
M  V30 END ATOM
M  V30 BEGIN BOND
M  V30 1 1 1 2
M  V30 2 2 1 3
M  V30 3 1 1 10
M  V30 4 1 2 4
M  V30 5 1 2 12
M  V30 6 3 3 5
M  V30 7 1 3 11
M  V30 8 1 4 5
M  V30 9 1 4 8
M  V30 10 1 5 6
M  V30 11 1 6 9
M  V30 12 1 6 13
M  V30 13 1 7 8
M  V30 14 1 7 9
M  V30 15 1 7 14
M  V30 16 1 9 15
M  V30 END BOND
M  V30 END CTAB
M  END
>  <ID>
22
$$$$
Structure_23
Score 	 8.0, smilesprid 	smiles	 smilestrue 	smiles	 similartanimoto 	0	 similardice 	0

   15   16  0  0  0  0            999 V3000
M  V30 BEGIN CTAB
M  V30 COUNTS 15 16 0 0 0
M  V30 BEGIN ATOM
M  V30 1 C -2.5391 -0.1953 0.0000 0
M  V30 2 C -1.7578 -1.3672 0.0000 0
M  V30 3 C -1.7578 0.9766 0.0000 0
M  V30 4 C -0.3906 -0.7812 0.0000 0
M  V30 5 C -0.3906 0.5859 0.0000 0
M  V30 6 C 0.7812 1.1719 0.0000 0
M  V30 7 C 1.9531 -0.7812 0.0000 0
M  V30 8 N 0.7812 -1.5625 0.0000 0
M  V30 9 N 1.9531 0.3906 0.0000 0
M  V30 10 H -3.5156 -0.1953 0.0000 0
M  V30 11 H -2.1484 2.1484 0.0000 0
M  V30 12 H -1.9531 -2.3438 0.0000 0
M  V30 13 H 0.9766 2.3438 0.0000 0
M  V30 14 H 2.9297 -1.3672 0.0000 0
M  V30 15 H 2.7344 0.9766 0.0000 0
M  V30 END ATOM
M  V30 BEGIN BOND
M  V30 1 2 1 2
M  V30 2 2 1 3
M  V30 3 1 1 10
M  V30 4 1 2 4
M  V30 5 1 2 12
M  V30 6 3 3 5
M  V30 7 1 3 11
M  V30 8 1 4 5
M  V30 9 1 4 8
M  V30 10 1 5 6
M  V30 11 1 6 9
M  V30 12 1 6 13
M  V30 13 1 7 8
M  V30 14 1 7 9
M  V30 15 1 7 14
M  V30 16 1 9 15
M  V30 END BOND
M  V30 END CTAB
M  END
>  <ID>
23
$$$$
Structure_24
Score 	 10.0, smilesprid 	smiles	 smilestrue 	smiles	 similartanimoto 	0	 similardice 	0

   15   16  0  0  0  0            999 V3000
M  V30 BEGIN CTAB
M  V30 COUNTS 15 16 0 0 0
M  V30 BEGIN ATOM
M  V30 1 C -2.5391 -0.1953 0.0000 0
M  V30 2 C -1.7578 -1.3672 0.0000 0
M  V30 3 C -1.7578 0.9766 0.0000 0
M  V30 4 C -0.3906 -0.7812 0.0000 0
M  V30 5 C -0.3906 0.5859 0.0000 0
M  V30 6 C 0.7812 1.1719 0.0000 0
M  V30 7 C 1.9531 -0.7812 0.0000 0
M  V30 8 N 0.7812 -1.5625 0.0000 0
M  V30 9 N 1.9531 0.3906 0.0000 0
M  V30 10 H -3.5156 -0.1953 0.0000 0
M  V30 11 H -2.1484 2.1484 0.0000 0
M  V30 12 H -1.9531 -2.3438 0.0000 0
M  V30 13 H 0.9766 2.3438 0.0000 0
M  V30 14 H 2.9297 -1.3672 0.0000 0
M  V30 15 H 2.7344 0.9766 0.0000 0
M  V30 END ATOM
M  V30 BEGIN BOND
M  V30 1 3 1 2
M  V30 2 2 1 3
M  V30 3 1 1 10
M  V30 4 1 2 4
M  V30 5 1 2 12
M  V30 6 3 3 5
M  V30 7 1 3 11
M  V30 8 1 4 5
M  V30 9 1 4 8
M  V30 10 1 5 6
M  V30 11 1 6 9
M  V30 12 1 6 13
M  V30 13 1 7 8
M  V30 14 1 7 9
M  V30 15 1 7 14
M  V30 16 1 9 15
M  V30 END BOND
M  V30 END CTAB
M  END
>  <ID>
24
$$$$
Structure_25
Score 	 10.0, smilesprid 	smiles	 smilestrue 	smiles	 similartanimoto 	0	 similardice 	0

   15   16  0  0  0  0            999 V3000
M  V30 BEGIN CTAB
M  V30 COUNTS 15 16 0 0 0
M  V30 BEGIN ATOM
M  V30 1 C -2.5391 -0.1953 0.0000 0
M  V30 2 C -1.7578 -1.3672 0.0000 0
M  V30 3 C -1.7578 0.9766 0.0000 0
M  V30 4 C -0.3906 -0.7812 0.0000 0
M  V30 5 C -0.3906 0.5859 0.0000 0
M  V30 6 C 0.7812 1.1719 0.0000 0
M  V30 7 C 1.9531 -0.7812 0.0000 0
M  V30 8 N 0.7812 -1.5625 0.0000 0
M  V30 9 N 1.9531 0.3906 0.0000 0
M  V30 10 H -3.5156 -0.1953 0.0000 0
M  V30 11 H -2.1484 2.1484 0.0000 0
M  V30 12 H -1.9531 -2.3438 0.0000 0
M  V30 13 H 0.9766 2.3438 0.0000 0
M  V30 14 H 2.9297 -1.3672 0.0000 0
M  V30 15 H 2.7344 0.9766 0.0000 0
M  V30 END ATOM
M  V30 BEGIN BOND
M  V30 1 1 1 2
M  V30 2 3 1 3
M  V30 3 1 1 10
M  V30 4 1 2 4
M  V30 5 1 2 12
M  V30 6 3 3 5
M  V30 7 1 3 11
M  V30 8 1 4 5
M  V30 9 1 4 8
M  V30 10 1 5 6
M  V30 11 1 6 9
M  V30 12 1 6 13
M  V30 13 1 7 8
M  V30 14 1 7 9
M  V30 15 1 7 14
M  V30 16 1 9 15
M  V30 END BOND
M  V30 END CTAB
M  END
>  <ID>
25
$$$$
Structure_26
Score 	 10.0, smilesprid 	smiles	 smilestrue 	smiles	 similartanimoto 	0	 similardice 	0

   15   16  0  0  0  0            999 V3000
M  V30 BEGIN CTAB
M  V30 COUNTS 15 16 0 0 0
M  V30 BEGIN ATOM
M  V30 1 C -2.5391 -0.1953 0.0000 0
M  V30 2 C -1.7578 -1.3672 0.0000 0
M  V30 3 C -1.7578 0.9766 0.0000 0
M  V30 4 C -0.3906 -0.7812 0.0000 0
M  V30 5 C -0.3906 0.5859 0.0000 0
M  V30 6 C 0.7812 1.1719 0.0000 0
M  V30 7 C 1.9531 -0.7812 0.0000 0
M  V30 8 N 0.7812 -1.5625 0.0000 0
M  V30 9 N 1.9531 0.3906 0.0000 0
M  V30 10 H -3.5156 -0.1953 0.0000 0
M  V30 11 H -2.1484 2.1484 0.0000 0
M  V30 12 H -1.9531 -2.3438 0.0000 0
M  V30 13 H 0.9766 2.3438 0.0000 0
M  V30 14 H 2.9297 -1.3672 0.0000 0
M  V30 15 H 2.7344 0.9766 0.0000 0
M  V30 END ATOM
M  V30 BEGIN BOND
M  V30 1 2 1 2
M  V30 2 3 1 3
M  V30 3 1 1 10
M  V30 4 1 2 4
M  V30 5 1 2 12
M  V30 6 3 3 5
M  V30 7 1 3 11
M  V30 8 1 4 5
M  V30 9 1 4 8
M  V30 10 1 5 6
M  V30 11 1 6 9
M  V30 12 1 6 13
M  V30 13 1 7 8
M  V30 14 1 7 9
M  V30 15 1 7 14
M  V30 16 1 9 15
M  V30 END BOND
M  V30 END CTAB
M  END
>  <ID>
26
$$$$
Structure_27
Score 	 12.0, smilesprid 	smiles	 smilestrue 	smiles	 similartanimoto 	0	 similardice 	0

   15   16  0  0  0  0            999 V3000
M  V30 BEGIN CTAB
M  V30 COUNTS 15 16 0 0 0
M  V30 BEGIN ATOM
M  V30 1 C -2.5391 -0.1953 0.0000 0
M  V30 2 C -1.7578 -1.3672 0.0000 0
M  V30 3 C -1.7578 0.9766 0.0000 0
M  V30 4 C -0.3906 -0.7812 0.0000 0
M  V30 5 C -0.3906 0.5859 0.0000 0
M  V30 6 C 0.7812 1.1719 0.0000 0
M  V30 7 C 1.9531 -0.7812 0.0000 0
M  V30 8 N 0.7812 -1.5625 0.0000 0
M  V30 9 N 1.9531 0.3906 0.0000 0
M  V30 10 H -3.5156 -0.1953 0.0000 0
M  V30 11 H -2.1484 2.1484 0.0000 0
M  V30 12 H -1.9531 -2.3438 0.0000 0
M  V30 13 H 0.9766 2.3438 0.0000 0
M  V30 14 H 2.9297 -1.3672 0.0000 0
M  V30 15 H 2.7344 0.9766 0.0000 0
M  V30 END ATOM
M  V30 BEGIN BOND
M  V30 1 3 1 2
M  V30 2 3 1 3
M  V30 3 1 1 10
M  V30 4 1 2 4
M  V30 5 1 2 12
M  V30 6 3 3 5
M  V30 7 1 3 11
M  V30 8 1 4 5
M  V30 9 1 4 8
M  V30 10 1 5 6
M  V30 11 1 6 9
M  V30 12 1 6 13
M  V30 13 1 7 8
M  V30 14 1 7 9
M  V30 15 1 7 14
M  V30 16 1 9 15
M  V30 END BOND
M  V30 END CTAB
M  END
>  <ID>
27
$$$$
Structure_28
Score 	 6.0, smilesprid 	smiles	 smilestrue 	smiles	 similartanimoto 	0	 similardice 	0

   15   16  0  0  0  0            999 V3000
M  V30 BEGIN CTAB
M  V30 COUNTS 15 16 0 0 0
M  V30 BEGIN ATOM
M  V30 1 C -2.5391 -0.1953 0.0000 0
M  V30 2 C -1.7578 -1.3672 0.0000 0
M  V30 3 C -1.7578 0.9766 0.0000 0
M  V30 4 C -0.3906 -0.7812 0.0000 0
M  V30 5 C -0.3906 0.5859 0.0000 0
M  V30 6 C 0.7812 1.1719 0.0000 0
M  V30 7 C 1.9531 -0.7812 0.0000 0
M  V30 8 N 0.7812 -1.5625 0.0000 0
M  V30 9 N 1.9531 0.3906 0.0000 0
M  V30 10 H -3.5156 -0.1953 0.0000 0
M  V30 11 H -2.1484 2.1484 0.0000 0
M  V30 12 H -1.9531 -2.3438 0.0000 0
M  V30 13 H 0.9766 2.3438 0.0000 0
M  V30 14 H 2.9297 -1.3672 0.0000 0
M  V30 15 H 2.7344 0.9766 0.0000 0
M  V30 END ATOM
M  V30 BEGIN BOND
M  V30 1 1 1 2
M  V30 2 1 1 3
M  V30 3 1 1 10
M  V30 4 2 2 4
M  V30 5 1 2 12
M  V30 6 1 3 5
M  V30 7 1 3 11
M  V30 8 1 4 5
M  V30 9 1 4 8
M  V30 10 1 5 6
M  V30 11 1 6 9
M  V30 12 1 6 13
M  V30 13 1 7 8
M  V30 14 1 7 9
M  V30 15 1 7 14
M  V30 16 1 9 15
M  V30 END BOND
M  V30 END CTAB
M  END
>  <ID>
28
$$$$
Structure_29
Score 	 6.0, smilesprid 	smiles	 smilestrue 	smiles	 similartanimoto 	0	 similardice 	0

   15   16  0  0  0  0            999 V3000
M  V30 BEGIN CTAB
M  V30 COUNTS 15 16 0 0 0
M  V30 BEGIN ATOM
M  V30 1 C -2.5391 -0.1953 0.0000 0
M  V30 2 C -1.7578 -1.3672 0.0000 0
M  V30 3 C -1.7578 0.9766 0.0000 0
M  V30 4 C -0.3906 -0.7812 0.0000 0
M  V30 5 C -0.3906 0.5859 0.0000 0
M  V30 6 C 0.7812 1.1719 0.0000 0
M  V30 7 C 1.9531 -0.7812 0.0000 0
M  V30 8 N 0.7812 -1.5625 0.0000 0
M  V30 9 N 1.9531 0.3906 0.0000 0
M  V30 10 H -3.5156 -0.1953 0.0000 0
M  V30 11 H -2.1484 2.1484 0.0000 0
M  V30 12 H -1.9531 -2.3438 0.0000 0
M  V30 13 H 0.9766 2.3438 0.0000 0
M  V30 14 H 2.9297 -1.3672 0.0000 0
M  V30 15 H 2.7344 0.9766 0.0000 0
M  V30 END ATOM
M  V30 BEGIN BOND
M  V30 1 2 1 2
M  V30 2 1 1 3
M  V30 3 1 1 10
M  V30 4 2 2 4
M  V30 5 1 2 12
M  V30 6 1 3 5
M  V30 7 1 3 11
M  V30 8 1 4 5
M  V30 9 1 4 8
M  V30 10 1 5 6
M  V30 11 1 6 9
M  V30 12 1 6 13
M  V30 13 1 7 8
M  V30 14 1 7 9
M  V30 15 1 7 14
M  V30 16 1 9 15
M  V30 END BOND
M  V30 END CTAB
M  END
>  <ID>
29
$$$$
Structure_30
Score 	 8.0, smilesprid 	smiles	 smilestrue 	smiles	 similartanimoto 	0	 similardice 	0

   15   16  0  0  0  0            999 V3000
M  V30 BEGIN CTAB
M  V30 COUNTS 15 16 0 0 0
M  V30 BEGIN ATOM
M  V30 1 C -2.5391 -0.1953 0.0000 0
M  V30 2 C -1.7578 -1.3672 0.0000 0
M  V30 3 C -1.7578 0.9766 0.0000 0
M  V30 4 C -0.3906 -0.7812 0.0000 0
M  V30 5 C -0.3906 0.5859 0.0000 0
M  V30 6 C 0.7812 1.1719 0.0000 0
M  V30 7 C 1.9531 -0.7812 0.0000 0
M  V30 8 N 0.7812 -1.5625 0.0000 0
M  V30 9 N 1.9531 0.3906 0.0000 0
M  V30 10 H -3.5156 -0.1953 0.0000 0
M  V30 11 H -2.1484 2.1484 0.0000 0
M  V30 12 H -1.9531 -2.3438 0.0000 0
M  V30 13 H 0.9766 2.3438 0.0000 0
M  V30 14 H 2.9297 -1.3672 0.0000 0
M  V30 15 H 2.7344 0.9766 0.0000 0
M  V30 END ATOM
M  V30 BEGIN BOND
M  V30 1 3 1 2
M  V30 2 1 1 3
M  V30 3 1 1 10
M  V30 4 2 2 4
M  V30 5 1 2 12
M  V30 6 1 3 5
M  V30 7 1 3 11
M  V30 8 1 4 5
M  V30 9 1 4 8
M  V30 10 1 5 6
M  V30 11 1 6 9
M  V30 12 1 6 13
M  V30 13 1 7 8
M  V30 14 1 7 9
M  V30 15 1 7 14
M  V30 16 1 9 15
M  V30 END BOND
M  V30 END CTAB
M  END
>  <ID>
30
$$$$
Structure_31
Score 	 4.0, smilesprid 	smiles	 smilestrue 	smiles	 similartanimoto 	0	 similardice 	0

   15   16  0  0  0  0            999 V3000
M  V30 BEGIN CTAB
M  V30 COUNTS 15 16 0 0 0
M  V30 BEGIN ATOM
M  V30 1 C -2.5391 -0.1953 0.0000 0
M  V30 2 C -1.7578 -1.3672 0.0000 0
M  V30 3 C -1.7578 0.9766 0.0000 0
M  V30 4 C -0.3906 -0.7812 0.0000 0
M  V30 5 C -0.3906 0.5859 0.0000 0
M  V30 6 C 0.7812 1.1719 0.0000 0
M  V30 7 C 1.9531 -0.7812 0.0000 0
M  V30 8 N 0.7812 -1.5625 0.0000 0
M  V30 9 N 1.9531 0.3906 0.0000 0
M  V30 10 H -3.5156 -0.1953 0.0000 0
M  V30 11 H -2.1484 2.1484 0.0000 0
M  V30 12 H -1.9531 -2.3438 0.0000 0
M  V30 13 H 0.9766 2.3438 0.0000 0
M  V30 14 H 2.9297 -1.3672 0.0000 0
M  V30 15 H 2.7344 0.9766 0.0000 0
M  V30 END ATOM
M  V30 BEGIN BOND
M  V30 1 1 1 2
M  V30 2 2 1 3
M  V30 3 1 1 10
M  V30 4 2 2 4
M  V30 5 1 2 12
M  V30 6 1 3 5
M  V30 7 1 3 11
M  V30 8 1 4 5
M  V30 9 1 4 8
M  V30 10 1 5 6
M  V30 11 1 6 9
M  V30 12 1 6 13
M  V30 13 1 7 8
M  V30 14 1 7 9
M  V30 15 1 7 14
M  V30 16 1 9 15
M  V30 END BOND
M  V30 END CTAB
M  END
>  <ID>
31
$$$$
Structure_32
Score 	 6.0, smilesprid 	smiles	 smilestrue 	smiles	 similartanimoto 	0	 similardice 	0

   15   16  0  0  0  0            999 V3000
M  V30 BEGIN CTAB
M  V30 COUNTS 15 16 0 0 0
M  V30 BEGIN ATOM
M  V30 1 C -2.5391 -0.1953 0.0000 0
M  V30 2 C -1.7578 -1.3672 0.0000 0
M  V30 3 C -1.7578 0.9766 0.0000 0
M  V30 4 C -0.3906 -0.7812 0.0000 0
M  V30 5 C -0.3906 0.5859 0.0000 0
M  V30 6 C 0.7812 1.1719 0.0000 0
M  V30 7 C 1.9531 -0.7812 0.0000 0
M  V30 8 N 0.7812 -1.5625 0.0000 0
M  V30 9 N 1.9531 0.3906 0.0000 0
M  V30 10 H -3.5156 -0.1953 0.0000 0
M  V30 11 H -2.1484 2.1484 0.0000 0
M  V30 12 H -1.9531 -2.3438 0.0000 0
M  V30 13 H 0.9766 2.3438 0.0000 0
M  V30 14 H 2.9297 -1.3672 0.0000 0
M  V30 15 H 2.7344 0.9766 0.0000 0
M  V30 END ATOM
M  V30 BEGIN BOND
M  V30 1 2 1 2
M  V30 2 2 1 3
M  V30 3 1 1 10
M  V30 4 2 2 4
M  V30 5 1 2 12
M  V30 6 1 3 5
M  V30 7 1 3 11
M  V30 8 1 4 5
M  V30 9 1 4 8
M  V30 10 1 5 6
M  V30 11 1 6 9
M  V30 12 1 6 13
M  V30 13 1 7 8
M  V30 14 1 7 9
M  V30 15 1 7 14
M  V30 16 1 9 15
M  V30 END BOND
M  V30 END CTAB
M  END
>  <ID>
32
$$$$
Structure_33
Score 	 8.0, smilesprid 	smiles	 smilestrue 	smiles	 similartanimoto 	0	 similardice 	0

   15   16  0  0  0  0            999 V3000
M  V30 BEGIN CTAB
M  V30 COUNTS 15 16 0 0 0
M  V30 BEGIN ATOM
M  V30 1 C -2.5391 -0.1953 0.0000 0
M  V30 2 C -1.7578 -1.3672 0.0000 0
M  V30 3 C -1.7578 0.9766 0.0000 0
M  V30 4 C -0.3906 -0.7812 0.0000 0
M  V30 5 C -0.3906 0.5859 0.0000 0
M  V30 6 C 0.7812 1.1719 0.0000 0
M  V30 7 C 1.9531 -0.7812 0.0000 0
M  V30 8 N 0.7812 -1.5625 0.0000 0
M  V30 9 N 1.9531 0.3906 0.0000 0
M  V30 10 H -3.5156 -0.1953 0.0000 0
M  V30 11 H -2.1484 2.1484 0.0000 0
M  V30 12 H -1.9531 -2.3438 0.0000 0
M  V30 13 H 0.9766 2.3438 0.0000 0
M  V30 14 H 2.9297 -1.3672 0.0000 0
M  V30 15 H 2.7344 0.9766 0.0000 0
M  V30 END ATOM
M  V30 BEGIN BOND
M  V30 1 3 1 2
M  V30 2 2 1 3
M  V30 3 1 1 10
M  V30 4 2 2 4
M  V30 5 1 2 12
M  V30 6 1 3 5
M  V30 7 1 3 11
M  V30 8 1 4 5
M  V30 9 1 4 8
M  V30 10 1 5 6
M  V30 11 1 6 9
M  V30 12 1 6 13
M  V30 13 1 7 8
M  V30 14 1 7 9
M  V30 15 1 7 14
M  V30 16 1 9 15
M  V30 END BOND
M  V30 END CTAB
M  END
>  <ID>
33
$$$$
Structure_34
Score 	 6.0, smilesprid 	smiles	 smilestrue 	smiles	 similartanimoto 	0	 similardice 	0

   15   16  0  0  0  0            999 V3000
M  V30 BEGIN CTAB
M  V30 COUNTS 15 16 0 0 0
M  V30 BEGIN ATOM
M  V30 1 C -2.5391 -0.1953 0.0000 0
M  V30 2 C -1.7578 -1.3672 0.0000 0
M  V30 3 C -1.7578 0.9766 0.0000 0
M  V30 4 C -0.3906 -0.7812 0.0000 0
M  V30 5 C -0.3906 0.5859 0.0000 0
M  V30 6 C 0.7812 1.1719 0.0000 0
M  V30 7 C 1.9531 -0.7812 0.0000 0
M  V30 8 N 0.7812 -1.5625 0.0000 0
M  V30 9 N 1.9531 0.3906 0.0000 0
M  V30 10 H -3.5156 -0.1953 0.0000 0
M  V30 11 H -2.1484 2.1484 0.0000 0
M  V30 12 H -1.9531 -2.3438 0.0000 0
M  V30 13 H 0.9766 2.3438 0.0000 0
M  V30 14 H 2.9297 -1.3672 0.0000 0
M  V30 15 H 2.7344 0.9766 0.0000 0
M  V30 END ATOM
M  V30 BEGIN BOND
M  V30 1 1 1 2
M  V30 2 3 1 3
M  V30 3 1 1 10
M  V30 4 2 2 4
M  V30 5 1 2 12
M  V30 6 1 3 5
M  V30 7 1 3 11
M  V30 8 1 4 5
M  V30 9 1 4 8
M  V30 10 1 5 6
M  V30 11 1 6 9
M  V30 12 1 6 13
M  V30 13 1 7 8
M  V30 14 1 7 9
M  V30 15 1 7 14
M  V30 16 1 9 15
M  V30 END BOND
M  V30 END CTAB
M  END
>  <ID>
34
$$$$
Structure_35
Score 	 8.0, smilesprid 	smiles	 smilestrue 	smiles	 similartanimoto 	0	 similardice 	0

   15   16  0  0  0  0            999 V3000
M  V30 BEGIN CTAB
M  V30 COUNTS 15 16 0 0 0
M  V30 BEGIN ATOM
M  V30 1 C -2.5391 -0.1953 0.0000 0
M  V30 2 C -1.7578 -1.3672 0.0000 0
M  V30 3 C -1.7578 0.9766 0.0000 0
M  V30 4 C -0.3906 -0.7812 0.0000 0
M  V30 5 C -0.3906 0.5859 0.0000 0
M  V30 6 C 0.7812 1.1719 0.0000 0
M  V30 7 C 1.9531 -0.7812 0.0000 0
M  V30 8 N 0.7812 -1.5625 0.0000 0
M  V30 9 N 1.9531 0.3906 0.0000 0
M  V30 10 H -3.5156 -0.1953 0.0000 0
M  V30 11 H -2.1484 2.1484 0.0000 0
M  V30 12 H -1.9531 -2.3438 0.0000 0
M  V30 13 H 0.9766 2.3438 0.0000 0
M  V30 14 H 2.9297 -1.3672 0.0000 0
M  V30 15 H 2.7344 0.9766 0.0000 0
M  V30 END ATOM
M  V30 BEGIN BOND
M  V30 1 2 1 2
M  V30 2 3 1 3
M  V30 3 1 1 10
M  V30 4 2 2 4
M  V30 5 1 2 12
M  V30 6 1 3 5
M  V30 7 1 3 11
M  V30 8 1 4 5
M  V30 9 1 4 8
M  V30 10 1 5 6
M  V30 11 1 6 9
M  V30 12 1 6 13
M  V30 13 1 7 8
M  V30 14 1 7 9
M  V30 15 1 7 14
M  V30 16 1 9 15
M  V30 END BOND
M  V30 END CTAB
M  END
>  <ID>
35
$$$$
Structure_36
Score 	 10.0, smilesprid 	smiles	 smilestrue 	smiles	 similartanimoto 	0	 similardice 	0

   15   16  0  0  0  0            999 V3000
M  V30 BEGIN CTAB
M  V30 COUNTS 15 16 0 0 0
M  V30 BEGIN ATOM
M  V30 1 C -2.5391 -0.1953 0.0000 0
M  V30 2 C -1.7578 -1.3672 0.0000 0
M  V30 3 C -1.7578 0.9766 0.0000 0
M  V30 4 C -0.3906 -0.7812 0.0000 0
M  V30 5 C -0.3906 0.5859 0.0000 0
M  V30 6 C 0.7812 1.1719 0.0000 0
M  V30 7 C 1.9531 -0.7812 0.0000 0
M  V30 8 N 0.7812 -1.5625 0.0000 0
M  V30 9 N 1.9531 0.3906 0.0000 0
M  V30 10 H -3.5156 -0.1953 0.0000 0
M  V30 11 H -2.1484 2.1484 0.0000 0
M  V30 12 H -1.9531 -2.3438 0.0000 0
M  V30 13 H 0.9766 2.3438 0.0000 0
M  V30 14 H 2.9297 -1.3672 0.0000 0
M  V30 15 H 2.7344 0.9766 0.0000 0
M  V30 END ATOM
M  V30 BEGIN BOND
M  V30 1 3 1 2
M  V30 2 3 1 3
M  V30 3 1 1 10
M  V30 4 2 2 4
M  V30 5 1 2 12
M  V30 6 1 3 5
M  V30 7 1 3 11
M  V30 8 1 4 5
M  V30 9 1 4 8
M  V30 10 1 5 6
M  V30 11 1 6 9
M  V30 12 1 6 13
M  V30 13 1 7 8
M  V30 14 1 7 9
M  V30 15 1 7 14
M  V30 16 1 9 15
M  V30 END BOND
M  V30 END CTAB
M  END
>  <ID>
36
$$$$
Structure_37
Score 	 4.0, smilesprid 	smiles	 smilestrue 	smiles	 similartanimoto 	0	 similardice 	0

   15   16  0  0  0  0            999 V3000
M  V30 BEGIN CTAB
M  V30 COUNTS 15 16 0 0 0
M  V30 BEGIN ATOM
M  V30 1 C -2.5391 -0.1953 0.0000 0
M  V30 2 C -1.7578 -1.3672 0.0000 0
M  V30 3 C -1.7578 0.9766 0.0000 0
M  V30 4 C -0.3906 -0.7812 0.0000 0
M  V30 5 C -0.3906 0.5859 0.0000 0
M  V30 6 C 0.7812 1.1719 0.0000 0
M  V30 7 C 1.9531 -0.7812 0.0000 0
M  V30 8 N 0.7812 -1.5625 0.0000 0
M  V30 9 N 1.9531 0.3906 0.0000 0
M  V30 10 H -3.5156 -0.1953 0.0000 0
M  V30 11 H -2.1484 2.1484 0.0000 0
M  V30 12 H -1.9531 -2.3438 0.0000 0
M  V30 13 H 0.9766 2.3438 0.0000 0
M  V30 14 H 2.9297 -1.3672 0.0000 0
M  V30 15 H 2.7344 0.9766 0.0000 0
M  V30 END ATOM
M  V30 BEGIN BOND
M  V30 1 1 1 2
M  V30 2 1 1 3
M  V30 3 1 1 10
M  V30 4 2 2 4
M  V30 5 1 2 12
M  V30 6 2 3 5
M  V30 7 1 3 11
M  V30 8 1 4 5
M  V30 9 1 4 8
M  V30 10 1 5 6
M  V30 11 1 6 9
M  V30 12 1 6 13
M  V30 13 1 7 8
M  V30 14 1 7 9
M  V30 15 1 7 14
M  V30 16 1 9 15
M  V30 END BOND
M  V30 END CTAB
M  END
>  <ID>
37
$$$$
Structure_38
Score 	 4.0, smilesprid 	smiles	 smilestrue 	smiles	 similartanimoto 	0	 similardice 	0

   15   16  0  0  0  0            999 V3000
M  V30 BEGIN CTAB
M  V30 COUNTS 15 16 0 0 0
M  V30 BEGIN ATOM
M  V30 1 C -2.5391 -0.1953 0.0000 0
M  V30 2 C -1.7578 -1.3672 0.0000 0
M  V30 3 C -1.7578 0.9766 0.0000 0
M  V30 4 C -0.3906 -0.7812 0.0000 0
M  V30 5 C -0.3906 0.5859 0.0000 0
M  V30 6 C 0.7812 1.1719 0.0000 0
M  V30 7 C 1.9531 -0.7812 0.0000 0
M  V30 8 N 0.7812 -1.5625 0.0000 0
M  V30 9 N 1.9531 0.3906 0.0000 0
M  V30 10 H -3.5156 -0.1953 0.0000 0
M  V30 11 H -2.1484 2.1484 0.0000 0
M  V30 12 H -1.9531 -2.3438 0.0000 0
M  V30 13 H 0.9766 2.3438 0.0000 0
M  V30 14 H 2.9297 -1.3672 0.0000 0
M  V30 15 H 2.7344 0.9766 0.0000 0
M  V30 END ATOM
M  V30 BEGIN BOND
M  V30 1 2 1 2
M  V30 2 1 1 3
M  V30 3 1 1 10
M  V30 4 2 2 4
M  V30 5 1 2 12
M  V30 6 2 3 5
M  V30 7 1 3 11
M  V30 8 1 4 5
M  V30 9 1 4 8
M  V30 10 1 5 6
M  V30 11 1 6 9
M  V30 12 1 6 13
M  V30 13 1 7 8
M  V30 14 1 7 9
M  V30 15 1 7 14
M  V30 16 1 9 15
M  V30 END BOND
M  V30 END CTAB
M  END
>  <ID>
38
$$$$
Structure_39
Score 	 6.0, smilesprid 	smiles	 smilestrue 	smiles	 similartanimoto 	0	 similardice 	0

   15   16  0  0  0  0            999 V3000
M  V30 BEGIN CTAB
M  V30 COUNTS 15 16 0 0 0
M  V30 BEGIN ATOM
M  V30 1 C -2.5391 -0.1953 0.0000 0
M  V30 2 C -1.7578 -1.3672 0.0000 0
M  V30 3 C -1.7578 0.9766 0.0000 0
M  V30 4 C -0.3906 -0.7812 0.0000 0
M  V30 5 C -0.3906 0.5859 0.0000 0
M  V30 6 C 0.7812 1.1719 0.0000 0
M  V30 7 C 1.9531 -0.7812 0.0000 0
M  V30 8 N 0.7812 -1.5625 0.0000 0
M  V30 9 N 1.9531 0.3906 0.0000 0
M  V30 10 H -3.5156 -0.1953 0.0000 0
M  V30 11 H -2.1484 2.1484 0.0000 0
M  V30 12 H -1.9531 -2.3438 0.0000 0
M  V30 13 H 0.9766 2.3438 0.0000 0
M  V30 14 H 2.9297 -1.3672 0.0000 0
M  V30 15 H 2.7344 0.9766 0.0000 0
M  V30 END ATOM
M  V30 BEGIN BOND
M  V30 1 3 1 2
M  V30 2 1 1 3
M  V30 3 1 1 10
M  V30 4 2 2 4
M  V30 5 1 2 12
M  V30 6 2 3 5
M  V30 7 1 3 11
M  V30 8 1 4 5
M  V30 9 1 4 8
M  V30 10 1 5 6
M  V30 11 1 6 9
M  V30 12 1 6 13
M  V30 13 1 7 8
M  V30 14 1 7 9
M  V30 15 1 7 14
M  V30 16 1 9 15
M  V30 END BOND
M  V30 END CTAB
M  END
>  <ID>
39
$$$$
Structure_40
Score 	 4.0, smilesprid 	smiles	 smilestrue 	smiles	 similartanimoto 	0	 similardice 	0

   15   16  0  0  0  0            999 V3000
M  V30 BEGIN CTAB
M  V30 COUNTS 15 16 0 0 0
M  V30 BEGIN ATOM
M  V30 1 C -2.5391 -0.1953 0.0000 0
M  V30 2 C -1.7578 -1.3672 0.0000 0
M  V30 3 C -1.7578 0.9766 0.0000 0
M  V30 4 C -0.3906 -0.7812 0.0000 0
M  V30 5 C -0.3906 0.5859 0.0000 0
M  V30 6 C 0.7812 1.1719 0.0000 0
M  V30 7 C 1.9531 -0.7812 0.0000 0
M  V30 8 N 0.7812 -1.5625 0.0000 0
M  V30 9 N 1.9531 0.3906 0.0000 0
M  V30 10 H -3.5156 -0.1953 0.0000 0
M  V30 11 H -2.1484 2.1484 0.0000 0
M  V30 12 H -1.9531 -2.3438 0.0000 0
M  V30 13 H 0.9766 2.3438 0.0000 0
M  V30 14 H 2.9297 -1.3672 0.0000 0
M  V30 15 H 2.7344 0.9766 0.0000 0
M  V30 END ATOM
M  V30 BEGIN BOND
M  V30 1 1 1 2
M  V30 2 2 1 3
M  V30 3 1 1 10
M  V30 4 2 2 4
M  V30 5 1 2 12
M  V30 6 2 3 5
M  V30 7 1 3 11
M  V30 8 1 4 5
M  V30 9 1 4 8
M  V30 10 1 5 6
M  V30 11 1 6 9
M  V30 12 1 6 13
M  V30 13 1 7 8
M  V30 14 1 7 9
M  V30 15 1 7 14
M  V30 16 1 9 15
M  V30 END BOND
M  V30 END CTAB
M  END
>  <ID>
40
$$$$
Structure_41
Score 	 6.0, smilesprid 	smiles	 smilestrue 	smiles	 similartanimoto 	0	 similardice 	0

   15   16  0  0  0  0            999 V3000
M  V30 BEGIN CTAB
M  V30 COUNTS 15 16 0 0 0
M  V30 BEGIN ATOM
M  V30 1 C -2.5391 -0.1953 0.0000 0
M  V30 2 C -1.7578 -1.3672 0.0000 0
M  V30 3 C -1.7578 0.9766 0.0000 0
M  V30 4 C -0.3906 -0.7812 0.0000 0
M  V30 5 C -0.3906 0.5859 0.0000 0
M  V30 6 C 0.7812 1.1719 0.0000 0
M  V30 7 C 1.9531 -0.7812 0.0000 0
M  V30 8 N 0.7812 -1.5625 0.0000 0
M  V30 9 N 1.9531 0.3906 0.0000 0
M  V30 10 H -3.5156 -0.1953 0.0000 0
M  V30 11 H -2.1484 2.1484 0.0000 0
M  V30 12 H -1.9531 -2.3438 0.0000 0
M  V30 13 H 0.9766 2.3438 0.0000 0
M  V30 14 H 2.9297 -1.3672 0.0000 0
M  V30 15 H 2.7344 0.9766 0.0000 0
M  V30 END ATOM
M  V30 BEGIN BOND
M  V30 1 2 1 2
M  V30 2 2 1 3
M  V30 3 1 1 10
M  V30 4 2 2 4
M  V30 5 1 2 12
M  V30 6 2 3 5
M  V30 7 1 3 11
M  V30 8 1 4 5
M  V30 9 1 4 8
M  V30 10 1 5 6
M  V30 11 1 6 9
M  V30 12 1 6 13
M  V30 13 1 7 8
M  V30 14 1 7 9
M  V30 15 1 7 14
M  V30 16 1 9 15
M  V30 END BOND
M  V30 END CTAB
M  END
>  <ID>
41
$$$$
Structure_42
Score 	 8.0, smilesprid 	smiles	 smilestrue 	smiles	 similartanimoto 	0	 similardice 	0

   15   16  0  0  0  0            999 V3000
M  V30 BEGIN CTAB
M  V30 COUNTS 15 16 0 0 0
M  V30 BEGIN ATOM
M  V30 1 C -2.5391 -0.1953 0.0000 0
M  V30 2 C -1.7578 -1.3672 0.0000 0
M  V30 3 C -1.7578 0.9766 0.0000 0
M  V30 4 C -0.3906 -0.7812 0.0000 0
M  V30 5 C -0.3906 0.5859 0.0000 0
M  V30 6 C 0.7812 1.1719 0.0000 0
M  V30 7 C 1.9531 -0.7812 0.0000 0
M  V30 8 N 0.7812 -1.5625 0.0000 0
M  V30 9 N 1.9531 0.3906 0.0000 0
M  V30 10 H -3.5156 -0.1953 0.0000 0
M  V30 11 H -2.1484 2.1484 0.0000 0
M  V30 12 H -1.9531 -2.3438 0.0000 0
M  V30 13 H 0.9766 2.3438 0.0000 0
M  V30 14 H 2.9297 -1.3672 0.0000 0
M  V30 15 H 2.7344 0.9766 0.0000 0
M  V30 END ATOM
M  V30 BEGIN BOND
M  V30 1 3 1 2
M  V30 2 2 1 3
M  V30 3 1 1 10
M  V30 4 2 2 4
M  V30 5 1 2 12
M  V30 6 2 3 5
M  V30 7 1 3 11
M  V30 8 1 4 5
M  V30 9 1 4 8
M  V30 10 1 5 6
M  V30 11 1 6 9
M  V30 12 1 6 13
M  V30 13 1 7 8
M  V30 14 1 7 9
M  V30 15 1 7 14
M  V30 16 1 9 15
M  V30 END BOND
M  V30 END CTAB
M  END
>  <ID>
42
$$$$
Structure_43
Score 	 6.0, smilesprid 	smiles	 smilestrue 	smiles	 similartanimoto 	0	 similardice 	0

   15   16  0  0  0  0            999 V3000
M  V30 BEGIN CTAB
M  V30 COUNTS 15 16 0 0 0
M  V30 BEGIN ATOM
M  V30 1 C -2.5391 -0.1953 0.0000 0
M  V30 2 C -1.7578 -1.3672 0.0000 0
M  V30 3 C -1.7578 0.9766 0.0000 0
M  V30 4 C -0.3906 -0.7812 0.0000 0
M  V30 5 C -0.3906 0.5859 0.0000 0
M  V30 6 C 0.7812 1.1719 0.0000 0
M  V30 7 C 1.9531 -0.7812 0.0000 0
M  V30 8 N 0.7812 -1.5625 0.0000 0
M  V30 9 N 1.9531 0.3906 0.0000 0
M  V30 10 H -3.5156 -0.1953 0.0000 0
M  V30 11 H -2.1484 2.1484 0.0000 0
M  V30 12 H -1.9531 -2.3438 0.0000 0
M  V30 13 H 0.9766 2.3438 0.0000 0
M  V30 14 H 2.9297 -1.3672 0.0000 0
M  V30 15 H 2.7344 0.9766 0.0000 0
M  V30 END ATOM
M  V30 BEGIN BOND
M  V30 1 1 1 2
M  V30 2 3 1 3
M  V30 3 1 1 10
M  V30 4 2 2 4
M  V30 5 1 2 12
M  V30 6 2 3 5
M  V30 7 1 3 11
M  V30 8 1 4 5
M  V30 9 1 4 8
M  V30 10 1 5 6
M  V30 11 1 6 9
M  V30 12 1 6 13
M  V30 13 1 7 8
M  V30 14 1 7 9
M  V30 15 1 7 14
M  V30 16 1 9 15
M  V30 END BOND
M  V30 END CTAB
M  END
>  <ID>
43
$$$$
Structure_44
Score 	 8.0, smilesprid 	smiles	 smilestrue 	smiles	 similartanimoto 	0	 similardice 	0

   15   16  0  0  0  0            999 V3000
M  V30 BEGIN CTAB
M  V30 COUNTS 15 16 0 0 0
M  V30 BEGIN ATOM
M  V30 1 C -2.5391 -0.1953 0.0000 0
M  V30 2 C -1.7578 -1.3672 0.0000 0
M  V30 3 C -1.7578 0.9766 0.0000 0
M  V30 4 C -0.3906 -0.7812 0.0000 0
M  V30 5 C -0.3906 0.5859 0.0000 0
M  V30 6 C 0.7812 1.1719 0.0000 0
M  V30 7 C 1.9531 -0.7812 0.0000 0
M  V30 8 N 0.7812 -1.5625 0.0000 0
M  V30 9 N 1.9531 0.3906 0.0000 0
M  V30 10 H -3.5156 -0.1953 0.0000 0
M  V30 11 H -2.1484 2.1484 0.0000 0
M  V30 12 H -1.9531 -2.3438 0.0000 0
M  V30 13 H 0.9766 2.3438 0.0000 0
M  V30 14 H 2.9297 -1.3672 0.0000 0
M  V30 15 H 2.7344 0.9766 0.0000 0
M  V30 END ATOM
M  V30 BEGIN BOND
M  V30 1 2 1 2
M  V30 2 3 1 3
M  V30 3 1 1 10
M  V30 4 2 2 4
M  V30 5 1 2 12
M  V30 6 2 3 5
M  V30 7 1 3 11
M  V30 8 1 4 5
M  V30 9 1 4 8
M  V30 10 1 5 6
M  V30 11 1 6 9
M  V30 12 1 6 13
M  V30 13 1 7 8
M  V30 14 1 7 9
M  V30 15 1 7 14
M  V30 16 1 9 15
M  V30 END BOND
M  V30 END CTAB
M  END
>  <ID>
44
$$$$
Structure_45
Score 	 10.0, smilesprid 	smiles	 smilestrue 	smiles	 similartanimoto 	0	 similardice 	0

   15   16  0  0  0  0            999 V3000
M  V30 BEGIN CTAB
M  V30 COUNTS 15 16 0 0 0
M  V30 BEGIN ATOM
M  V30 1 C -2.5391 -0.1953 0.0000 0
M  V30 2 C -1.7578 -1.3672 0.0000 0
M  V30 3 C -1.7578 0.9766 0.0000 0
M  V30 4 C -0.3906 -0.7812 0.0000 0
M  V30 5 C -0.3906 0.5859 0.0000 0
M  V30 6 C 0.7812 1.1719 0.0000 0
M  V30 7 C 1.9531 -0.7812 0.0000 0
M  V30 8 N 0.7812 -1.5625 0.0000 0
M  V30 9 N 1.9531 0.3906 0.0000 0
M  V30 10 H -3.5156 -0.1953 0.0000 0
M  V30 11 H -2.1484 2.1484 0.0000 0
M  V30 12 H -1.9531 -2.3438 0.0000 0
M  V30 13 H 0.9766 2.3438 0.0000 0
M  V30 14 H 2.9297 -1.3672 0.0000 0
M  V30 15 H 2.7344 0.9766 0.0000 0
M  V30 END ATOM
M  V30 BEGIN BOND
M  V30 1 3 1 2
M  V30 2 3 1 3
M  V30 3 1 1 10
M  V30 4 2 2 4
M  V30 5 1 2 12
M  V30 6 2 3 5
M  V30 7 1 3 11
M  V30 8 1 4 5
M  V30 9 1 4 8
M  V30 10 1 5 6
M  V30 11 1 6 9
M  V30 12 1 6 13
M  V30 13 1 7 8
M  V30 14 1 7 9
M  V30 15 1 7 14
M  V30 16 1 9 15
M  V30 END BOND
M  V30 END CTAB
M  END
>  <ID>
45
$$$$
Structure_46
Score 	 6.0, smilesprid 	smiles	 smilestrue 	smiles	 similartanimoto 	0	 similardice 	0

   15   16  0  0  0  0            999 V3000
M  V30 BEGIN CTAB
M  V30 COUNTS 15 16 0 0 0
M  V30 BEGIN ATOM
M  V30 1 C -2.5391 -0.1953 0.0000 0
M  V30 2 C -1.7578 -1.3672 0.0000 0
M  V30 3 C -1.7578 0.9766 0.0000 0
M  V30 4 C -0.3906 -0.7812 0.0000 0
M  V30 5 C -0.3906 0.5859 0.0000 0
M  V30 6 C 0.7812 1.1719 0.0000 0
M  V30 7 C 1.9531 -0.7812 0.0000 0
M  V30 8 N 0.7812 -1.5625 0.0000 0
M  V30 9 N 1.9531 0.3906 0.0000 0
M  V30 10 H -3.5156 -0.1953 0.0000 0
M  V30 11 H -2.1484 2.1484 0.0000 0
M  V30 12 H -1.9531 -2.3438 0.0000 0
M  V30 13 H 0.9766 2.3438 0.0000 0
M  V30 14 H 2.9297 -1.3672 0.0000 0
M  V30 15 H 2.7344 0.9766 0.0000 0
M  V30 END ATOM
M  V30 BEGIN BOND
M  V30 1 1 1 2
M  V30 2 1 1 3
M  V30 3 1 1 10
M  V30 4 2 2 4
M  V30 5 1 2 12
M  V30 6 3 3 5
M  V30 7 1 3 11
M  V30 8 1 4 5
M  V30 9 1 4 8
M  V30 10 1 5 6
M  V30 11 1 6 9
M  V30 12 1 6 13
M  V30 13 1 7 8
M  V30 14 1 7 9
M  V30 15 1 7 14
M  V30 16 1 9 15
M  V30 END BOND
M  V30 END CTAB
M  END
>  <ID>
46
$$$$
Structure_47
Score 	 6.0, smilesprid 	smiles	 smilestrue 	smiles	 similartanimoto 	0	 similardice 	0

   15   16  0  0  0  0            999 V3000
M  V30 BEGIN CTAB
M  V30 COUNTS 15 16 0 0 0
M  V30 BEGIN ATOM
M  V30 1 C -2.5391 -0.1953 0.0000 0
M  V30 2 C -1.7578 -1.3672 0.0000 0
M  V30 3 C -1.7578 0.9766 0.0000 0
M  V30 4 C -0.3906 -0.7812 0.0000 0
M  V30 5 C -0.3906 0.5859 0.0000 0
M  V30 6 C 0.7812 1.1719 0.0000 0
M  V30 7 C 1.9531 -0.7812 0.0000 0
M  V30 8 N 0.7812 -1.5625 0.0000 0
M  V30 9 N 1.9531 0.3906 0.0000 0
M  V30 10 H -3.5156 -0.1953 0.0000 0
M  V30 11 H -2.1484 2.1484 0.0000 0
M  V30 12 H -1.9531 -2.3438 0.0000 0
M  V30 13 H 0.9766 2.3438 0.0000 0
M  V30 14 H 2.9297 -1.3672 0.0000 0
M  V30 15 H 2.7344 0.9766 0.0000 0
M  V30 END ATOM
M  V30 BEGIN BOND
M  V30 1 2 1 2
M  V30 2 1 1 3
M  V30 3 1 1 10
M  V30 4 2 2 4
M  V30 5 1 2 12
M  V30 6 3 3 5
M  V30 7 1 3 11
M  V30 8 1 4 5
M  V30 9 1 4 8
M  V30 10 1 5 6
M  V30 11 1 6 9
M  V30 12 1 6 13
M  V30 13 1 7 8
M  V30 14 1 7 9
M  V30 15 1 7 14
M  V30 16 1 9 15
M  V30 END BOND
M  V30 END CTAB
M  END
>  <ID>
47
$$$$
Structure_48
Score 	 8.0, smilesprid 	smiles	 smilestrue 	smiles	 similartanimoto 	0	 similardice 	0

   15   16  0  0  0  0            999 V3000
M  V30 BEGIN CTAB
M  V30 COUNTS 15 16 0 0 0
M  V30 BEGIN ATOM
M  V30 1 C -2.5391 -0.1953 0.0000 0
M  V30 2 C -1.7578 -1.3672 0.0000 0
M  V30 3 C -1.7578 0.9766 0.0000 0
M  V30 4 C -0.3906 -0.7812 0.0000 0
M  V30 5 C -0.3906 0.5859 0.0000 0
M  V30 6 C 0.7812 1.1719 0.0000 0
M  V30 7 C 1.9531 -0.7812 0.0000 0
M  V30 8 N 0.7812 -1.5625 0.0000 0
M  V30 9 N 1.9531 0.3906 0.0000 0
M  V30 10 H -3.5156 -0.1953 0.0000 0
M  V30 11 H -2.1484 2.1484 0.0000 0
M  V30 12 H -1.9531 -2.3438 0.0000 0
M  V30 13 H 0.9766 2.3438 0.0000 0
M  V30 14 H 2.9297 -1.3672 0.0000 0
M  V30 15 H 2.7344 0.9766 0.0000 0
M  V30 END ATOM
M  V30 BEGIN BOND
M  V30 1 3 1 2
M  V30 2 1 1 3
M  V30 3 1 1 10
M  V30 4 2 2 4
M  V30 5 1 2 12
M  V30 6 3 3 5
M  V30 7 1 3 11
M  V30 8 1 4 5
M  V30 9 1 4 8
M  V30 10 1 5 6
M  V30 11 1 6 9
M  V30 12 1 6 13
M  V30 13 1 7 8
M  V30 14 1 7 9
M  V30 15 1 7 14
M  V30 16 1 9 15
M  V30 END BOND
M  V30 END CTAB
M  END
>  <ID>
48
$$$$
Structure_49
Score 	 6.0, smilesprid 	smiles	 smilestrue 	smiles	 similartanimoto 	0	 similardice 	0

   15   16  0  0  0  0            999 V3000
M  V30 BEGIN CTAB
M  V30 COUNTS 15 16 0 0 0
M  V30 BEGIN ATOM
M  V30 1 C -2.5391 -0.1953 0.0000 0
M  V30 2 C -1.7578 -1.3672 0.0000 0
M  V30 3 C -1.7578 0.9766 0.0000 0
M  V30 4 C -0.3906 -0.7812 0.0000 0
M  V30 5 C -0.3906 0.5859 0.0000 0
M  V30 6 C 0.7812 1.1719 0.0000 0
M  V30 7 C 1.9531 -0.7812 0.0000 0
M  V30 8 N 0.7812 -1.5625 0.0000 0
M  V30 9 N 1.9531 0.3906 0.0000 0
M  V30 10 H -3.5156 -0.1953 0.0000 0
M  V30 11 H -2.1484 2.1484 0.0000 0
M  V30 12 H -1.9531 -2.3438 0.0000 0
M  V30 13 H 0.9766 2.3438 0.0000 0
M  V30 14 H 2.9297 -1.3672 0.0000 0
M  V30 15 H 2.7344 0.9766 0.0000 0
M  V30 END ATOM
M  V30 BEGIN BOND
M  V30 1 1 1 2
M  V30 2 2 1 3
M  V30 3 1 1 10
M  V30 4 2 2 4
M  V30 5 1 2 12
M  V30 6 3 3 5
M  V30 7 1 3 11
M  V30 8 1 4 5
M  V30 9 1 4 8
M  V30 10 1 5 6
M  V30 11 1 6 9
M  V30 12 1 6 13
M  V30 13 1 7 8
M  V30 14 1 7 9
M  V30 15 1 7 14
M  V30 16 1 9 15
M  V30 END BOND
M  V30 END CTAB
M  END
>  <ID>
49
$$$$
Structure_50
Score 	 8.0, smilesprid 	smiles	 smilestrue 	smiles	 similartanimoto 	0	 similardice 	0

   15   16  0  0  0  0            999 V3000
M  V30 BEGIN CTAB
M  V30 COUNTS 15 16 0 0 0
M  V30 BEGIN ATOM
M  V30 1 C -2.5391 -0.1953 0.0000 0
M  V30 2 C -1.7578 -1.3672 0.0000 0
M  V30 3 C -1.7578 0.9766 0.0000 0
M  V30 4 C -0.3906 -0.7812 0.0000 0
M  V30 5 C -0.3906 0.5859 0.0000 0
M  V30 6 C 0.7812 1.1719 0.0000 0
M  V30 7 C 1.9531 -0.7812 0.0000 0
M  V30 8 N 0.7812 -1.5625 0.0000 0
M  V30 9 N 1.9531 0.3906 0.0000 0
M  V30 10 H -3.5156 -0.1953 0.0000 0
M  V30 11 H -2.1484 2.1484 0.0000 0
M  V30 12 H -1.9531 -2.3438 0.0000 0
M  V30 13 H 0.9766 2.3438 0.0000 0
M  V30 14 H 2.9297 -1.3672 0.0000 0
M  V30 15 H 2.7344 0.9766 0.0000 0
M  V30 END ATOM
M  V30 BEGIN BOND
M  V30 1 2 1 2
M  V30 2 2 1 3
M  V30 3 1 1 10
M  V30 4 2 2 4
M  V30 5 1 2 12
M  V30 6 3 3 5
M  V30 7 1 3 11
M  V30 8 1 4 5
M  V30 9 1 4 8
M  V30 10 1 5 6
M  V30 11 1 6 9
M  V30 12 1 6 13
M  V30 13 1 7 8
M  V30 14 1 7 9
M  V30 15 1 7 14
M  V30 16 1 9 15
M  V30 END BOND
M  V30 END CTAB
M  END
>  <ID>
50
$$$$
Structure_51
Score 	 10.0, smilesprid 	smiles	 smilestrue 	smiles	 similartanimoto 	0	 similardice 	0

   15   16  0  0  0  0            999 V3000
M  V30 BEGIN CTAB
M  V30 COUNTS 15 16 0 0 0
M  V30 BEGIN ATOM
M  V30 1 C -2.5391 -0.1953 0.0000 0
M  V30 2 C -1.7578 -1.3672 0.0000 0
M  V30 3 C -1.7578 0.9766 0.0000 0
M  V30 4 C -0.3906 -0.7812 0.0000 0
M  V30 5 C -0.3906 0.5859 0.0000 0
M  V30 6 C 0.7812 1.1719 0.0000 0
M  V30 7 C 1.9531 -0.7812 0.0000 0
M  V30 8 N 0.7812 -1.5625 0.0000 0
M  V30 9 N 1.9531 0.3906 0.0000 0
M  V30 10 H -3.5156 -0.1953 0.0000 0
M  V30 11 H -2.1484 2.1484 0.0000 0
M  V30 12 H -1.9531 -2.3438 0.0000 0
M  V30 13 H 0.9766 2.3438 0.0000 0
M  V30 14 H 2.9297 -1.3672 0.0000 0
M  V30 15 H 2.7344 0.9766 0.0000 0
M  V30 END ATOM
M  V30 BEGIN BOND
M  V30 1 3 1 2
M  V30 2 2 1 3
M  V30 3 1 1 10
M  V30 4 2 2 4
M  V30 5 1 2 12
M  V30 6 3 3 5
M  V30 7 1 3 11
M  V30 8 1 4 5
M  V30 9 1 4 8
M  V30 10 1 5 6
M  V30 11 1 6 9
M  V30 12 1 6 13
M  V30 13 1 7 8
M  V30 14 1 7 9
M  V30 15 1 7 14
M  V30 16 1 9 15
M  V30 END BOND
M  V30 END CTAB
M  END
>  <ID>
51
$$$$
Structure_52
Score 	 8.0, smilesprid 	smiles	 smilestrue 	smiles	 similartanimoto 	0	 similardice 	0

   15   16  0  0  0  0            999 V3000
M  V30 BEGIN CTAB
M  V30 COUNTS 15 16 0 0 0
M  V30 BEGIN ATOM
M  V30 1 C -2.5391 -0.1953 0.0000 0
M  V30 2 C -1.7578 -1.3672 0.0000 0
M  V30 3 C -1.7578 0.9766 0.0000 0
M  V30 4 C -0.3906 -0.7812 0.0000 0
M  V30 5 C -0.3906 0.5859 0.0000 0
M  V30 6 C 0.7812 1.1719 0.0000 0
M  V30 7 C 1.9531 -0.7812 0.0000 0
M  V30 8 N 0.7812 -1.5625 0.0000 0
M  V30 9 N 1.9531 0.3906 0.0000 0
M  V30 10 H -3.5156 -0.1953 0.0000 0
M  V30 11 H -2.1484 2.1484 0.0000 0
M  V30 12 H -1.9531 -2.3438 0.0000 0
M  V30 13 H 0.9766 2.3438 0.0000 0
M  V30 14 H 2.9297 -1.3672 0.0000 0
M  V30 15 H 2.7344 0.9766 0.0000 0
M  V30 END ATOM
M  V30 BEGIN BOND
M  V30 1 1 1 2
M  V30 2 3 1 3
M  V30 3 1 1 10
M  V30 4 2 2 4
M  V30 5 1 2 12
M  V30 6 3 3 5
M  V30 7 1 3 11
M  V30 8 1 4 5
M  V30 9 1 4 8
M  V30 10 1 5 6
M  V30 11 1 6 9
M  V30 12 1 6 13
M  V30 13 1 7 8
M  V30 14 1 7 9
M  V30 15 1 7 14
M  V30 16 1 9 15
M  V30 END BOND
M  V30 END CTAB
M  END
>  <ID>
52
$$$$
Structure_53
Score 	 10.0, smilesprid 	smiles	 smilestrue 	smiles	 similartanimoto 	0	 similardice 	0

   15   16  0  0  0  0            999 V3000
M  V30 BEGIN CTAB
M  V30 COUNTS 15 16 0 0 0
M  V30 BEGIN ATOM
M  V30 1 C -2.5391 -0.1953 0.0000 0
M  V30 2 C -1.7578 -1.3672 0.0000 0
M  V30 3 C -1.7578 0.9766 0.0000 0
M  V30 4 C -0.3906 -0.7812 0.0000 0
M  V30 5 C -0.3906 0.5859 0.0000 0
M  V30 6 C 0.7812 1.1719 0.0000 0
M  V30 7 C 1.9531 -0.7812 0.0000 0
M  V30 8 N 0.7812 -1.5625 0.0000 0
M  V30 9 N 1.9531 0.3906 0.0000 0
M  V30 10 H -3.5156 -0.1953 0.0000 0
M  V30 11 H -2.1484 2.1484 0.0000 0
M  V30 12 H -1.9531 -2.3438 0.0000 0
M  V30 13 H 0.9766 2.3438 0.0000 0
M  V30 14 H 2.9297 -1.3672 0.0000 0
M  V30 15 H 2.7344 0.9766 0.0000 0
M  V30 END ATOM
M  V30 BEGIN BOND
M  V30 1 2 1 2
M  V30 2 3 1 3
M  V30 3 1 1 10
M  V30 4 2 2 4
M  V30 5 1 2 12
M  V30 6 3 3 5
M  V30 7 1 3 11
M  V30 8 1 4 5
M  V30 9 1 4 8
M  V30 10 1 5 6
M  V30 11 1 6 9
M  V30 12 1 6 13
M  V30 13 1 7 8
M  V30 14 1 7 9
M  V30 15 1 7 14
M  V30 16 1 9 15
M  V30 END BOND
M  V30 END CTAB
M  END
>  <ID>
53
$$$$
Structure_54
Score 	 12.0, smilesprid 	smiles	 smilestrue 	smiles	 similartanimoto 	0	 similardice 	0

   15   16  0  0  0  0            999 V3000
M  V30 BEGIN CTAB
M  V30 COUNTS 15 16 0 0 0
M  V30 BEGIN ATOM
M  V30 1 C -2.5391 -0.1953 0.0000 0
M  V30 2 C -1.7578 -1.3672 0.0000 0
M  V30 3 C -1.7578 0.9766 0.0000 0
M  V30 4 C -0.3906 -0.7812 0.0000 0
M  V30 5 C -0.3906 0.5859 0.0000 0
M  V30 6 C 0.7812 1.1719 0.0000 0
M  V30 7 C 1.9531 -0.7812 0.0000 0
M  V30 8 N 0.7812 -1.5625 0.0000 0
M  V30 9 N 1.9531 0.3906 0.0000 0
M  V30 10 H -3.5156 -0.1953 0.0000 0
M  V30 11 H -2.1484 2.1484 0.0000 0
M  V30 12 H -1.9531 -2.3438 0.0000 0
M  V30 13 H 0.9766 2.3438 0.0000 0
M  V30 14 H 2.9297 -1.3672 0.0000 0
M  V30 15 H 2.7344 0.9766 0.0000 0
M  V30 END ATOM
M  V30 BEGIN BOND
M  V30 1 3 1 2
M  V30 2 3 1 3
M  V30 3 1 1 10
M  V30 4 2 2 4
M  V30 5 1 2 12
M  V30 6 3 3 5
M  V30 7 1 3 11
M  V30 8 1 4 5
M  V30 9 1 4 8
M  V30 10 1 5 6
M  V30 11 1 6 9
M  V30 12 1 6 13
M  V30 13 1 7 8
M  V30 14 1 7 9
M  V30 15 1 7 14
M  V30 16 1 9 15
M  V30 END BOND
M  V30 END CTAB
M  END
>  <ID>
54
$$$$
Structure_55
Score 	 8.0, smilesprid 	smiles	 smilestrue 	smiles	 similartanimoto 	0	 similardice 	0

   15   16  0  0  0  0            999 V3000
M  V30 BEGIN CTAB
M  V30 COUNTS 15 16 0 0 0
M  V30 BEGIN ATOM
M  V30 1 C -2.5391 -0.1953 0.0000 0
M  V30 2 C -1.7578 -1.3672 0.0000 0
M  V30 3 C -1.7578 0.9766 0.0000 0
M  V30 4 C -0.3906 -0.7812 0.0000 0
M  V30 5 C -0.3906 0.5859 0.0000 0
M  V30 6 C 0.7812 1.1719 0.0000 0
M  V30 7 C 1.9531 -0.7812 0.0000 0
M  V30 8 N 0.7812 -1.5625 0.0000 0
M  V30 9 N 1.9531 0.3906 0.0000 0
M  V30 10 H -3.5156 -0.1953 0.0000 0
M  V30 11 H -2.1484 2.1484 0.0000 0
M  V30 12 H -1.9531 -2.3438 0.0000 0
M  V30 13 H 0.9766 2.3438 0.0000 0
M  V30 14 H 2.9297 -1.3672 0.0000 0
M  V30 15 H 2.7344 0.9766 0.0000 0
M  V30 END ATOM
M  V30 BEGIN BOND
M  V30 1 1 1 2
M  V30 2 1 1 3
M  V30 3 1 1 10
M  V30 4 3 2 4
M  V30 5 1 2 12
M  V30 6 1 3 5
M  V30 7 1 3 11
M  V30 8 1 4 5
M  V30 9 1 4 8
M  V30 10 1 5 6
M  V30 11 1 6 9
M  V30 12 1 6 13
M  V30 13 1 7 8
M  V30 14 1 7 9
M  V30 15 1 7 14
M  V30 16 1 9 15
M  V30 END BOND
M  V30 END CTAB
M  END
>  <ID>
55
$$$$
Structure_56
Score 	 8.0, smilesprid 	smiles	 smilestrue 	smiles	 similartanimoto 	0	 similardice 	0

   15   16  0  0  0  0            999 V3000
M  V30 BEGIN CTAB
M  V30 COUNTS 15 16 0 0 0
M  V30 BEGIN ATOM
M  V30 1 C -2.5391 -0.1953 0.0000 0
M  V30 2 C -1.7578 -1.3672 0.0000 0
M  V30 3 C -1.7578 0.9766 0.0000 0
M  V30 4 C -0.3906 -0.7812 0.0000 0
M  V30 5 C -0.3906 0.5859 0.0000 0
M  V30 6 C 0.7812 1.1719 0.0000 0
M  V30 7 C 1.9531 -0.7812 0.0000 0
M  V30 8 N 0.7812 -1.5625 0.0000 0
M  V30 9 N 1.9531 0.3906 0.0000 0
M  V30 10 H -3.5156 -0.1953 0.0000 0
M  V30 11 H -2.1484 2.1484 0.0000 0
M  V30 12 H -1.9531 -2.3438 0.0000 0
M  V30 13 H 0.9766 2.3438 0.0000 0
M  V30 14 H 2.9297 -1.3672 0.0000 0
M  V30 15 H 2.7344 0.9766 0.0000 0
M  V30 END ATOM
M  V30 BEGIN BOND
M  V30 1 2 1 2
M  V30 2 1 1 3
M  V30 3 1 1 10
M  V30 4 3 2 4
M  V30 5 1 2 12
M  V30 6 1 3 5
M  V30 7 1 3 11
M  V30 8 1 4 5
M  V30 9 1 4 8
M  V30 10 1 5 6
M  V30 11 1 6 9
M  V30 12 1 6 13
M  V30 13 1 7 8
M  V30 14 1 7 9
M  V30 15 1 7 14
M  V30 16 1 9 15
M  V30 END BOND
M  V30 END CTAB
M  END
>  <ID>
56
$$$$
Structure_57
Score 	 10.0, smilesprid 	smiles	 smilestrue 	smiles	 similartanimoto 	0	 similardice 	0

   15   16  0  0  0  0            999 V3000
M  V30 BEGIN CTAB
M  V30 COUNTS 15 16 0 0 0
M  V30 BEGIN ATOM
M  V30 1 C -2.5391 -0.1953 0.0000 0
M  V30 2 C -1.7578 -1.3672 0.0000 0
M  V30 3 C -1.7578 0.9766 0.0000 0
M  V30 4 C -0.3906 -0.7812 0.0000 0
M  V30 5 C -0.3906 0.5859 0.0000 0
M  V30 6 C 0.7812 1.1719 0.0000 0
M  V30 7 C 1.9531 -0.7812 0.0000 0
M  V30 8 N 0.7812 -1.5625 0.0000 0
M  V30 9 N 1.9531 0.3906 0.0000 0
M  V30 10 H -3.5156 -0.1953 0.0000 0
M  V30 11 H -2.1484 2.1484 0.0000 0
M  V30 12 H -1.9531 -2.3438 0.0000 0
M  V30 13 H 0.9766 2.3438 0.0000 0
M  V30 14 H 2.9297 -1.3672 0.0000 0
M  V30 15 H 2.7344 0.9766 0.0000 0
M  V30 END ATOM
M  V30 BEGIN BOND
M  V30 1 3 1 2
M  V30 2 1 1 3
M  V30 3 1 1 10
M  V30 4 3 2 4
M  V30 5 1 2 12
M  V30 6 1 3 5
M  V30 7 1 3 11
M  V30 8 1 4 5
M  V30 9 1 4 8
M  V30 10 1 5 6
M  V30 11 1 6 9
M  V30 12 1 6 13
M  V30 13 1 7 8
M  V30 14 1 7 9
M  V30 15 1 7 14
M  V30 16 1 9 15
M  V30 END BOND
M  V30 END CTAB
M  END
>  <ID>
57
$$$$
Structure_58
Score 	 6.0, smilesprid 	smiles	 smilestrue 	smiles	 similartanimoto 	0	 similardice 	0

   15   16  0  0  0  0            999 V3000
M  V30 BEGIN CTAB
M  V30 COUNTS 15 16 0 0 0
M  V30 BEGIN ATOM
M  V30 1 C -2.5391 -0.1953 0.0000 0
M  V30 2 C -1.7578 -1.3672 0.0000 0
M  V30 3 C -1.7578 0.9766 0.0000 0
M  V30 4 C -0.3906 -0.7812 0.0000 0
M  V30 5 C -0.3906 0.5859 0.0000 0
M  V30 6 C 0.7812 1.1719 0.0000 0
M  V30 7 C 1.9531 -0.7812 0.0000 0
M  V30 8 N 0.7812 -1.5625 0.0000 0
M  V30 9 N 1.9531 0.3906 0.0000 0
M  V30 10 H -3.5156 -0.1953 0.0000 0
M  V30 11 H -2.1484 2.1484 0.0000 0
M  V30 12 H -1.9531 -2.3438 0.0000 0
M  V30 13 H 0.9766 2.3438 0.0000 0
M  V30 14 H 2.9297 -1.3672 0.0000 0
M  V30 15 H 2.7344 0.9766 0.0000 0
M  V30 END ATOM
M  V30 BEGIN BOND
M  V30 1 1 1 2
M  V30 2 2 1 3
M  V30 3 1 1 10
M  V30 4 3 2 4
M  V30 5 1 2 12
M  V30 6 1 3 5
M  V30 7 1 3 11
M  V30 8 1 4 5
M  V30 9 1 4 8
M  V30 10 1 5 6
M  V30 11 1 6 9
M  V30 12 1 6 13
M  V30 13 1 7 8
M  V30 14 1 7 9
M  V30 15 1 7 14
M  V30 16 1 9 15
M  V30 END BOND
M  V30 END CTAB
M  END
>  <ID>
58
$$$$
Structure_59
Score 	 8.0, smilesprid 	smiles	 smilestrue 	smiles	 similartanimoto 	0	 similardice 	0

   15   16  0  0  0  0            999 V3000
M  V30 BEGIN CTAB
M  V30 COUNTS 15 16 0 0 0
M  V30 BEGIN ATOM
M  V30 1 C -2.5391 -0.1953 0.0000 0
M  V30 2 C -1.7578 -1.3672 0.0000 0
M  V30 3 C -1.7578 0.9766 0.0000 0
M  V30 4 C -0.3906 -0.7812 0.0000 0
M  V30 5 C -0.3906 0.5859 0.0000 0
M  V30 6 C 0.7812 1.1719 0.0000 0
M  V30 7 C 1.9531 -0.7812 0.0000 0
M  V30 8 N 0.7812 -1.5625 0.0000 0
M  V30 9 N 1.9531 0.3906 0.0000 0
M  V30 10 H -3.5156 -0.1953 0.0000 0
M  V30 11 H -2.1484 2.1484 0.0000 0
M  V30 12 H -1.9531 -2.3438 0.0000 0
M  V30 13 H 0.9766 2.3438 0.0000 0
M  V30 14 H 2.9297 -1.3672 0.0000 0
M  V30 15 H 2.7344 0.9766 0.0000 0
M  V30 END ATOM
M  V30 BEGIN BOND
M  V30 1 2 1 2
M  V30 2 2 1 3
M  V30 3 1 1 10
M  V30 4 3 2 4
M  V30 5 1 2 12
M  V30 6 1 3 5
M  V30 7 1 3 11
M  V30 8 1 4 5
M  V30 9 1 4 8
M  V30 10 1 5 6
M  V30 11 1 6 9
M  V30 12 1 6 13
M  V30 13 1 7 8
M  V30 14 1 7 9
M  V30 15 1 7 14
M  V30 16 1 9 15
M  V30 END BOND
M  V30 END CTAB
M  END
>  <ID>
59
$$$$
Structure_60
Score 	 10.0, smilesprid 	smiles	 smilestrue 	smiles	 similartanimoto 	0	 similardice 	0

   15   16  0  0  0  0            999 V3000
M  V30 BEGIN CTAB
M  V30 COUNTS 15 16 0 0 0
M  V30 BEGIN ATOM
M  V30 1 C -2.5391 -0.1953 0.0000 0
M  V30 2 C -1.7578 -1.3672 0.0000 0
M  V30 3 C -1.7578 0.9766 0.0000 0
M  V30 4 C -0.3906 -0.7812 0.0000 0
M  V30 5 C -0.3906 0.5859 0.0000 0
M  V30 6 C 0.7812 1.1719 0.0000 0
M  V30 7 C 1.9531 -0.7812 0.0000 0
M  V30 8 N 0.7812 -1.5625 0.0000 0
M  V30 9 N 1.9531 0.3906 0.0000 0
M  V30 10 H -3.5156 -0.1953 0.0000 0
M  V30 11 H -2.1484 2.1484 0.0000 0
M  V30 12 H -1.9531 -2.3438 0.0000 0
M  V30 13 H 0.9766 2.3438 0.0000 0
M  V30 14 H 2.9297 -1.3672 0.0000 0
M  V30 15 H 2.7344 0.9766 0.0000 0
M  V30 END ATOM
M  V30 BEGIN BOND
M  V30 1 3 1 2
M  V30 2 2 1 3
M  V30 3 1 1 10
M  V30 4 3 2 4
M  V30 5 1 2 12
M  V30 6 1 3 5
M  V30 7 1 3 11
M  V30 8 1 4 5
M  V30 9 1 4 8
M  V30 10 1 5 6
M  V30 11 1 6 9
M  V30 12 1 6 13
M  V30 13 1 7 8
M  V30 14 1 7 9
M  V30 15 1 7 14
M  V30 16 1 9 15
M  V30 END BOND
M  V30 END CTAB
M  END
>  <ID>
60
$$$$
Structure_61
Score 	 8.0, smilesprid 	smiles	 smilestrue 	smiles	 similartanimoto 	0	 similardice 	0

   15   16  0  0  0  0            999 V3000
M  V30 BEGIN CTAB
M  V30 COUNTS 15 16 0 0 0
M  V30 BEGIN ATOM
M  V30 1 C -2.5391 -0.1953 0.0000 0
M  V30 2 C -1.7578 -1.3672 0.0000 0
M  V30 3 C -1.7578 0.9766 0.0000 0
M  V30 4 C -0.3906 -0.7812 0.0000 0
M  V30 5 C -0.3906 0.5859 0.0000 0
M  V30 6 C 0.7812 1.1719 0.0000 0
M  V30 7 C 1.9531 -0.7812 0.0000 0
M  V30 8 N 0.7812 -1.5625 0.0000 0
M  V30 9 N 1.9531 0.3906 0.0000 0
M  V30 10 H -3.5156 -0.1953 0.0000 0
M  V30 11 H -2.1484 2.1484 0.0000 0
M  V30 12 H -1.9531 -2.3438 0.0000 0
M  V30 13 H 0.9766 2.3438 0.0000 0
M  V30 14 H 2.9297 -1.3672 0.0000 0
M  V30 15 H 2.7344 0.9766 0.0000 0
M  V30 END ATOM
M  V30 BEGIN BOND
M  V30 1 1 1 2
M  V30 2 3 1 3
M  V30 3 1 1 10
M  V30 4 3 2 4
M  V30 5 1 2 12
M  V30 6 1 3 5
M  V30 7 1 3 11
M  V30 8 1 4 5
M  V30 9 1 4 8
M  V30 10 1 5 6
M  V30 11 1 6 9
M  V30 12 1 6 13
M  V30 13 1 7 8
M  V30 14 1 7 9
M  V30 15 1 7 14
M  V30 16 1 9 15
M  V30 END BOND
M  V30 END CTAB
M  END
>  <ID>
61
$$$$
Structure_62
Score 	 10.0, smilesprid 	smiles	 smilestrue 	smiles	 similartanimoto 	0	 similardice 	0

   15   16  0  0  0  0            999 V3000
M  V30 BEGIN CTAB
M  V30 COUNTS 15 16 0 0 0
M  V30 BEGIN ATOM
M  V30 1 C -2.5391 -0.1953 0.0000 0
M  V30 2 C -1.7578 -1.3672 0.0000 0
M  V30 3 C -1.7578 0.9766 0.0000 0
M  V30 4 C -0.3906 -0.7812 0.0000 0
M  V30 5 C -0.3906 0.5859 0.0000 0
M  V30 6 C 0.7812 1.1719 0.0000 0
M  V30 7 C 1.9531 -0.7812 0.0000 0
M  V30 8 N 0.7812 -1.5625 0.0000 0
M  V30 9 N 1.9531 0.3906 0.0000 0
M  V30 10 H -3.5156 -0.1953 0.0000 0
M  V30 11 H -2.1484 2.1484 0.0000 0
M  V30 12 H -1.9531 -2.3438 0.0000 0
M  V30 13 H 0.9766 2.3438 0.0000 0
M  V30 14 H 2.9297 -1.3672 0.0000 0
M  V30 15 H 2.7344 0.9766 0.0000 0
M  V30 END ATOM
M  V30 BEGIN BOND
M  V30 1 2 1 2
M  V30 2 3 1 3
M  V30 3 1 1 10
M  V30 4 3 2 4
M  V30 5 1 2 12
M  V30 6 1 3 5
M  V30 7 1 3 11
M  V30 8 1 4 5
M  V30 9 1 4 8
M  V30 10 1 5 6
M  V30 11 1 6 9
M  V30 12 1 6 13
M  V30 13 1 7 8
M  V30 14 1 7 9
M  V30 15 1 7 14
M  V30 16 1 9 15
M  V30 END BOND
M  V30 END CTAB
M  END
>  <ID>
62
$$$$
Structure_63
Score 	 12.0, smilesprid 	smiles	 smilestrue 	smiles	 similartanimoto 	0	 similardice 	0

   15   16  0  0  0  0            999 V3000
M  V30 BEGIN CTAB
M  V30 COUNTS 15 16 0 0 0
M  V30 BEGIN ATOM
M  V30 1 C -2.5391 -0.1953 0.0000 0
M  V30 2 C -1.7578 -1.3672 0.0000 0
M  V30 3 C -1.7578 0.9766 0.0000 0
M  V30 4 C -0.3906 -0.7812 0.0000 0
M  V30 5 C -0.3906 0.5859 0.0000 0
M  V30 6 C 0.7812 1.1719 0.0000 0
M  V30 7 C 1.9531 -0.7812 0.0000 0
M  V30 8 N 0.7812 -1.5625 0.0000 0
M  V30 9 N 1.9531 0.3906 0.0000 0
M  V30 10 H -3.5156 -0.1953 0.0000 0
M  V30 11 H -2.1484 2.1484 0.0000 0
M  V30 12 H -1.9531 -2.3438 0.0000 0
M  V30 13 H 0.9766 2.3438 0.0000 0
M  V30 14 H 2.9297 -1.3672 0.0000 0
M  V30 15 H 2.7344 0.9766 0.0000 0
M  V30 END ATOM
M  V30 BEGIN BOND
M  V30 1 3 1 2
M  V30 2 3 1 3
M  V30 3 1 1 10
M  V30 4 3 2 4
M  V30 5 1 2 12
M  V30 6 1 3 5
M  V30 7 1 3 11
M  V30 8 1 4 5
M  V30 9 1 4 8
M  V30 10 1 5 6
M  V30 11 1 6 9
M  V30 12 1 6 13
M  V30 13 1 7 8
M  V30 14 1 7 9
M  V30 15 1 7 14
M  V30 16 1 9 15
M  V30 END BOND
M  V30 END CTAB
M  END
>  <ID>
63
$$$$
Structure_64
Score 	 6.0, smilesprid 	smiles	 smilestrue 	smiles	 similartanimoto 	0	 similardice 	0

   15   16  0  0  0  0            999 V3000
M  V30 BEGIN CTAB
M  V30 COUNTS 15 16 0 0 0
M  V30 BEGIN ATOM
M  V30 1 C -2.5391 -0.1953 0.0000 0
M  V30 2 C -1.7578 -1.3672 0.0000 0
M  V30 3 C -1.7578 0.9766 0.0000 0
M  V30 4 C -0.3906 -0.7812 0.0000 0
M  V30 5 C -0.3906 0.5859 0.0000 0
M  V30 6 C 0.7812 1.1719 0.0000 0
M  V30 7 C 1.9531 -0.7812 0.0000 0
M  V30 8 N 0.7812 -1.5625 0.0000 0
M  V30 9 N 1.9531 0.3906 0.0000 0
M  V30 10 H -3.5156 -0.1953 0.0000 0
M  V30 11 H -2.1484 2.1484 0.0000 0
M  V30 12 H -1.9531 -2.3438 0.0000 0
M  V30 13 H 0.9766 2.3438 0.0000 0
M  V30 14 H 2.9297 -1.3672 0.0000 0
M  V30 15 H 2.7344 0.9766 0.0000 0
M  V30 END ATOM
M  V30 BEGIN BOND
M  V30 1 1 1 2
M  V30 2 1 1 3
M  V30 3 1 1 10
M  V30 4 3 2 4
M  V30 5 1 2 12
M  V30 6 2 3 5
M  V30 7 1 3 11
M  V30 8 1 4 5
M  V30 9 1 4 8
M  V30 10 1 5 6
M  V30 11 1 6 9
M  V30 12 1 6 13
M  V30 13 1 7 8
M  V30 14 1 7 9
M  V30 15 1 7 14
M  V30 16 1 9 15
M  V30 END BOND
M  V30 END CTAB
M  END
>  <ID>
64
$$$$
Structure_65
Score 	 6.0, smilesprid 	smiles	 smilestrue 	smiles	 similartanimoto 	0	 similardice 	0

   15   16  0  0  0  0            999 V3000
M  V30 BEGIN CTAB
M  V30 COUNTS 15 16 0 0 0
M  V30 BEGIN ATOM
M  V30 1 C -2.5391 -0.1953 0.0000 0
M  V30 2 C -1.7578 -1.3672 0.0000 0
M  V30 3 C -1.7578 0.9766 0.0000 0
M  V30 4 C -0.3906 -0.7812 0.0000 0
M  V30 5 C -0.3906 0.5859 0.0000 0
M  V30 6 C 0.7812 1.1719 0.0000 0
M  V30 7 C 1.9531 -0.7812 0.0000 0
M  V30 8 N 0.7812 -1.5625 0.0000 0
M  V30 9 N 1.9531 0.3906 0.0000 0
M  V30 10 H -3.5156 -0.1953 0.0000 0
M  V30 11 H -2.1484 2.1484 0.0000 0
M  V30 12 H -1.9531 -2.3438 0.0000 0
M  V30 13 H 0.9766 2.3438 0.0000 0
M  V30 14 H 2.9297 -1.3672 0.0000 0
M  V30 15 H 2.7344 0.9766 0.0000 0
M  V30 END ATOM
M  V30 BEGIN BOND
M  V30 1 2 1 2
M  V30 2 1 1 3
M  V30 3 1 1 10
M  V30 4 3 2 4
M  V30 5 1 2 12
M  V30 6 2 3 5
M  V30 7 1 3 11
M  V30 8 1 4 5
M  V30 9 1 4 8
M  V30 10 1 5 6
M  V30 11 1 6 9
M  V30 12 1 6 13
M  V30 13 1 7 8
M  V30 14 1 7 9
M  V30 15 1 7 14
M  V30 16 1 9 15
M  V30 END BOND
M  V30 END CTAB
M  END
>  <ID>
65
$$$$
Structure_66
Score 	 8.0, smilesprid 	smiles	 smilestrue 	smiles	 similartanimoto 	0	 similardice 	0

   15   16  0  0  0  0            999 V3000
M  V30 BEGIN CTAB
M  V30 COUNTS 15 16 0 0 0
M  V30 BEGIN ATOM
M  V30 1 C -2.5391 -0.1953 0.0000 0
M  V30 2 C -1.7578 -1.3672 0.0000 0
M  V30 3 C -1.7578 0.9766 0.0000 0
M  V30 4 C -0.3906 -0.7812 0.0000 0
M  V30 5 C -0.3906 0.5859 0.0000 0
M  V30 6 C 0.7812 1.1719 0.0000 0
M  V30 7 C 1.9531 -0.7812 0.0000 0
M  V30 8 N 0.7812 -1.5625 0.0000 0
M  V30 9 N 1.9531 0.3906 0.0000 0
M  V30 10 H -3.5156 -0.1953 0.0000 0
M  V30 11 H -2.1484 2.1484 0.0000 0
M  V30 12 H -1.9531 -2.3438 0.0000 0
M  V30 13 H 0.9766 2.3438 0.0000 0
M  V30 14 H 2.9297 -1.3672 0.0000 0
M  V30 15 H 2.7344 0.9766 0.0000 0
M  V30 END ATOM
M  V30 BEGIN BOND
M  V30 1 3 1 2
M  V30 2 1 1 3
M  V30 3 1 1 10
M  V30 4 3 2 4
M  V30 5 1 2 12
M  V30 6 2 3 5
M  V30 7 1 3 11
M  V30 8 1 4 5
M  V30 9 1 4 8
M  V30 10 1 5 6
M  V30 11 1 6 9
M  V30 12 1 6 13
M  V30 13 1 7 8
M  V30 14 1 7 9
M  V30 15 1 7 14
M  V30 16 1 9 15
M  V30 END BOND
M  V30 END CTAB
M  END
>  <ID>
66
$$$$
Structure_67
Score 	 6.0, smilesprid 	smiles	 smilestrue 	smiles	 similartanimoto 	0	 similardice 	0

   15   16  0  0  0  0            999 V3000
M  V30 BEGIN CTAB
M  V30 COUNTS 15 16 0 0 0
M  V30 BEGIN ATOM
M  V30 1 C -2.5391 -0.1953 0.0000 0
M  V30 2 C -1.7578 -1.3672 0.0000 0
M  V30 3 C -1.7578 0.9766 0.0000 0
M  V30 4 C -0.3906 -0.7812 0.0000 0
M  V30 5 C -0.3906 0.5859 0.0000 0
M  V30 6 C 0.7812 1.1719 0.0000 0
M  V30 7 C 1.9531 -0.7812 0.0000 0
M  V30 8 N 0.7812 -1.5625 0.0000 0
M  V30 9 N 1.9531 0.3906 0.0000 0
M  V30 10 H -3.5156 -0.1953 0.0000 0
M  V30 11 H -2.1484 2.1484 0.0000 0
M  V30 12 H -1.9531 -2.3438 0.0000 0
M  V30 13 H 0.9766 2.3438 0.0000 0
M  V30 14 H 2.9297 -1.3672 0.0000 0
M  V30 15 H 2.7344 0.9766 0.0000 0
M  V30 END ATOM
M  V30 BEGIN BOND
M  V30 1 1 1 2
M  V30 2 2 1 3
M  V30 3 1 1 10
M  V30 4 3 2 4
M  V30 5 1 2 12
M  V30 6 2 3 5
M  V30 7 1 3 11
M  V30 8 1 4 5
M  V30 9 1 4 8
M  V30 10 1 5 6
M  V30 11 1 6 9
M  V30 12 1 6 13
M  V30 13 1 7 8
M  V30 14 1 7 9
M  V30 15 1 7 14
M  V30 16 1 9 15
M  V30 END BOND
M  V30 END CTAB
M  END
>  <ID>
67
$$$$
Structure_68
Score 	 8.0, smilesprid 	smiles	 smilestrue 	smiles	 similartanimoto 	0	 similardice 	0

   15   16  0  0  0  0            999 V3000
M  V30 BEGIN CTAB
M  V30 COUNTS 15 16 0 0 0
M  V30 BEGIN ATOM
M  V30 1 C -2.5391 -0.1953 0.0000 0
M  V30 2 C -1.7578 -1.3672 0.0000 0
M  V30 3 C -1.7578 0.9766 0.0000 0
M  V30 4 C -0.3906 -0.7812 0.0000 0
M  V30 5 C -0.3906 0.5859 0.0000 0
M  V30 6 C 0.7812 1.1719 0.0000 0
M  V30 7 C 1.9531 -0.7812 0.0000 0
M  V30 8 N 0.7812 -1.5625 0.0000 0
M  V30 9 N 1.9531 0.3906 0.0000 0
M  V30 10 H -3.5156 -0.1953 0.0000 0
M  V30 11 H -2.1484 2.1484 0.0000 0
M  V30 12 H -1.9531 -2.3438 0.0000 0
M  V30 13 H 0.9766 2.3438 0.0000 0
M  V30 14 H 2.9297 -1.3672 0.0000 0
M  V30 15 H 2.7344 0.9766 0.0000 0
M  V30 END ATOM
M  V30 BEGIN BOND
M  V30 1 2 1 2
M  V30 2 2 1 3
M  V30 3 1 1 10
M  V30 4 3 2 4
M  V30 5 1 2 12
M  V30 6 2 3 5
M  V30 7 1 3 11
M  V30 8 1 4 5
M  V30 9 1 4 8
M  V30 10 1 5 6
M  V30 11 1 6 9
M  V30 12 1 6 13
M  V30 13 1 7 8
M  V30 14 1 7 9
M  V30 15 1 7 14
M  V30 16 1 9 15
M  V30 END BOND
M  V30 END CTAB
M  END
>  <ID>
68
$$$$
Structure_69
Score 	 10.0, smilesprid 	smiles	 smilestrue 	smiles	 similartanimoto 	0	 similardice 	0

   15   16  0  0  0  0            999 V3000
M  V30 BEGIN CTAB
M  V30 COUNTS 15 16 0 0 0
M  V30 BEGIN ATOM
M  V30 1 C -2.5391 -0.1953 0.0000 0
M  V30 2 C -1.7578 -1.3672 0.0000 0
M  V30 3 C -1.7578 0.9766 0.0000 0
M  V30 4 C -0.3906 -0.7812 0.0000 0
M  V30 5 C -0.3906 0.5859 0.0000 0
M  V30 6 C 0.7812 1.1719 0.0000 0
M  V30 7 C 1.9531 -0.7812 0.0000 0
M  V30 8 N 0.7812 -1.5625 0.0000 0
M  V30 9 N 1.9531 0.3906 0.0000 0
M  V30 10 H -3.5156 -0.1953 0.0000 0
M  V30 11 H -2.1484 2.1484 0.0000 0
M  V30 12 H -1.9531 -2.3438 0.0000 0
M  V30 13 H 0.9766 2.3438 0.0000 0
M  V30 14 H 2.9297 -1.3672 0.0000 0
M  V30 15 H 2.7344 0.9766 0.0000 0
M  V30 END ATOM
M  V30 BEGIN BOND
M  V30 1 3 1 2
M  V30 2 2 1 3
M  V30 3 1 1 10
M  V30 4 3 2 4
M  V30 5 1 2 12
M  V30 6 2 3 5
M  V30 7 1 3 11
M  V30 8 1 4 5
M  V30 9 1 4 8
M  V30 10 1 5 6
M  V30 11 1 6 9
M  V30 12 1 6 13
M  V30 13 1 7 8
M  V30 14 1 7 9
M  V30 15 1 7 14
M  V30 16 1 9 15
M  V30 END BOND
M  V30 END CTAB
M  END
>  <ID>
69
$$$$
Structure_70
Score 	 8.0, smilesprid 	smiles	 smilestrue 	smiles	 similartanimoto 	0	 similardice 	0

   15   16  0  0  0  0            999 V3000
M  V30 BEGIN CTAB
M  V30 COUNTS 15 16 0 0 0
M  V30 BEGIN ATOM
M  V30 1 C -2.5391 -0.1953 0.0000 0
M  V30 2 C -1.7578 -1.3672 0.0000 0
M  V30 3 C -1.7578 0.9766 0.0000 0
M  V30 4 C -0.3906 -0.7812 0.0000 0
M  V30 5 C -0.3906 0.5859 0.0000 0
M  V30 6 C 0.7812 1.1719 0.0000 0
M  V30 7 C 1.9531 -0.7812 0.0000 0
M  V30 8 N 0.7812 -1.5625 0.0000 0
M  V30 9 N 1.9531 0.3906 0.0000 0
M  V30 10 H -3.5156 -0.1953 0.0000 0
M  V30 11 H -2.1484 2.1484 0.0000 0
M  V30 12 H -1.9531 -2.3438 0.0000 0
M  V30 13 H 0.9766 2.3438 0.0000 0
M  V30 14 H 2.9297 -1.3672 0.0000 0
M  V30 15 H 2.7344 0.9766 0.0000 0
M  V30 END ATOM
M  V30 BEGIN BOND
M  V30 1 1 1 2
M  V30 2 3 1 3
M  V30 3 1 1 10
M  V30 4 3 2 4
M  V30 5 1 2 12
M  V30 6 2 3 5
M  V30 7 1 3 11
M  V30 8 1 4 5
M  V30 9 1 4 8
M  V30 10 1 5 6
M  V30 11 1 6 9
M  V30 12 1 6 13
M  V30 13 1 7 8
M  V30 14 1 7 9
M  V30 15 1 7 14
M  V30 16 1 9 15
M  V30 END BOND
M  V30 END CTAB
M  END
>  <ID>
70
$$$$
Structure_71
Score 	 10.0, smilesprid 	smiles	 smilestrue 	smiles	 similartanimoto 	0	 similardice 	0

   15   16  0  0  0  0            999 V3000
M  V30 BEGIN CTAB
M  V30 COUNTS 15 16 0 0 0
M  V30 BEGIN ATOM
M  V30 1 C -2.5391 -0.1953 0.0000 0
M  V30 2 C -1.7578 -1.3672 0.0000 0
M  V30 3 C -1.7578 0.9766 0.0000 0
M  V30 4 C -0.3906 -0.7812 0.0000 0
M  V30 5 C -0.3906 0.5859 0.0000 0
M  V30 6 C 0.7812 1.1719 0.0000 0
M  V30 7 C 1.9531 -0.7812 0.0000 0
M  V30 8 N 0.7812 -1.5625 0.0000 0
M  V30 9 N 1.9531 0.3906 0.0000 0
M  V30 10 H -3.5156 -0.1953 0.0000 0
M  V30 11 H -2.1484 2.1484 0.0000 0
M  V30 12 H -1.9531 -2.3438 0.0000 0
M  V30 13 H 0.9766 2.3438 0.0000 0
M  V30 14 H 2.9297 -1.3672 0.0000 0
M  V30 15 H 2.7344 0.9766 0.0000 0
M  V30 END ATOM
M  V30 BEGIN BOND
M  V30 1 2 1 2
M  V30 2 3 1 3
M  V30 3 1 1 10
M  V30 4 3 2 4
M  V30 5 1 2 12
M  V30 6 2 3 5
M  V30 7 1 3 11
M  V30 8 1 4 5
M  V30 9 1 4 8
M  V30 10 1 5 6
M  V30 11 1 6 9
M  V30 12 1 6 13
M  V30 13 1 7 8
M  V30 14 1 7 9
M  V30 15 1 7 14
M  V30 16 1 9 15
M  V30 END BOND
M  V30 END CTAB
M  END
>  <ID>
71
$$$$
Structure_72
Score 	 12.0, smilesprid 	smiles	 smilestrue 	smiles	 similartanimoto 	0	 similardice 	0

   15   16  0  0  0  0            999 V3000
M  V30 BEGIN CTAB
M  V30 COUNTS 15 16 0 0 0
M  V30 BEGIN ATOM
M  V30 1 C -2.5391 -0.1953 0.0000 0
M  V30 2 C -1.7578 -1.3672 0.0000 0
M  V30 3 C -1.7578 0.9766 0.0000 0
M  V30 4 C -0.3906 -0.7812 0.0000 0
M  V30 5 C -0.3906 0.5859 0.0000 0
M  V30 6 C 0.7812 1.1719 0.0000 0
M  V30 7 C 1.9531 -0.7812 0.0000 0
M  V30 8 N 0.7812 -1.5625 0.0000 0
M  V30 9 N 1.9531 0.3906 0.0000 0
M  V30 10 H -3.5156 -0.1953 0.0000 0
M  V30 11 H -2.1484 2.1484 0.0000 0
M  V30 12 H -1.9531 -2.3438 0.0000 0
M  V30 13 H 0.9766 2.3438 0.0000 0
M  V30 14 H 2.9297 -1.3672 0.0000 0
M  V30 15 H 2.7344 0.9766 0.0000 0
M  V30 END ATOM
M  V30 BEGIN BOND
M  V30 1 3 1 2
M  V30 2 3 1 3
M  V30 3 1 1 10
M  V30 4 3 2 4
M  V30 5 1 2 12
M  V30 6 2 3 5
M  V30 7 1 3 11
M  V30 8 1 4 5
M  V30 9 1 4 8
M  V30 10 1 5 6
M  V30 11 1 6 9
M  V30 12 1 6 13
M  V30 13 1 7 8
M  V30 14 1 7 9
M  V30 15 1 7 14
M  V30 16 1 9 15
M  V30 END BOND
M  V30 END CTAB
M  END
>  <ID>
72
$$$$
Structure_73
Score 	 8.0, smilesprid 	smiles	 smilestrue 	smiles	 similartanimoto 	0	 similardice 	0

   15   16  0  0  0  0            999 V3000
M  V30 BEGIN CTAB
M  V30 COUNTS 15 16 0 0 0
M  V30 BEGIN ATOM
M  V30 1 C -2.5391 -0.1953 0.0000 0
M  V30 2 C -1.7578 -1.3672 0.0000 0
M  V30 3 C -1.7578 0.9766 0.0000 0
M  V30 4 C -0.3906 -0.7812 0.0000 0
M  V30 5 C -0.3906 0.5859 0.0000 0
M  V30 6 C 0.7812 1.1719 0.0000 0
M  V30 7 C 1.9531 -0.7812 0.0000 0
M  V30 8 N 0.7812 -1.5625 0.0000 0
M  V30 9 N 1.9531 0.3906 0.0000 0
M  V30 10 H -3.5156 -0.1953 0.0000 0
M  V30 11 H -2.1484 2.1484 0.0000 0
M  V30 12 H -1.9531 -2.3438 0.0000 0
M  V30 13 H 0.9766 2.3438 0.0000 0
M  V30 14 H 2.9297 -1.3672 0.0000 0
M  V30 15 H 2.7344 0.9766 0.0000 0
M  V30 END ATOM
M  V30 BEGIN BOND
M  V30 1 1 1 2
M  V30 2 1 1 3
M  V30 3 1 1 10
M  V30 4 3 2 4
M  V30 5 1 2 12
M  V30 6 3 3 5
M  V30 7 1 3 11
M  V30 8 1 4 5
M  V30 9 1 4 8
M  V30 10 1 5 6
M  V30 11 1 6 9
M  V30 12 1 6 13
M  V30 13 1 7 8
M  V30 14 1 7 9
M  V30 15 1 7 14
M  V30 16 1 9 15
M  V30 END BOND
M  V30 END CTAB
M  END
>  <ID>
73
$$$$
Structure_74
Score 	 8.0, smilesprid 	smiles	 smilestrue 	smiles	 similartanimoto 	0	 similardice 	0

   15   16  0  0  0  0            999 V3000
M  V30 BEGIN CTAB
M  V30 COUNTS 15 16 0 0 0
M  V30 BEGIN ATOM
M  V30 1 C -2.5391 -0.1953 0.0000 0
M  V30 2 C -1.7578 -1.3672 0.0000 0
M  V30 3 C -1.7578 0.9766 0.0000 0
M  V30 4 C -0.3906 -0.7812 0.0000 0
M  V30 5 C -0.3906 0.5859 0.0000 0
M  V30 6 C 0.7812 1.1719 0.0000 0
M  V30 7 C 1.9531 -0.7812 0.0000 0
M  V30 8 N 0.7812 -1.5625 0.0000 0
M  V30 9 N 1.9531 0.3906 0.0000 0
M  V30 10 H -3.5156 -0.1953 0.0000 0
M  V30 11 H -2.1484 2.1484 0.0000 0
M  V30 12 H -1.9531 -2.3438 0.0000 0
M  V30 13 H 0.9766 2.3438 0.0000 0
M  V30 14 H 2.9297 -1.3672 0.0000 0
M  V30 15 H 2.7344 0.9766 0.0000 0
M  V30 END ATOM
M  V30 BEGIN BOND
M  V30 1 2 1 2
M  V30 2 1 1 3
M  V30 3 1 1 10
M  V30 4 3 2 4
M  V30 5 1 2 12
M  V30 6 3 3 5
M  V30 7 1 3 11
M  V30 8 1 4 5
M  V30 9 1 4 8
M  V30 10 1 5 6
M  V30 11 1 6 9
M  V30 12 1 6 13
M  V30 13 1 7 8
M  V30 14 1 7 9
M  V30 15 1 7 14
M  V30 16 1 9 15
M  V30 END BOND
M  V30 END CTAB
M  END
>  <ID>
74
$$$$
Structure_75
Score 	 10.0, smilesprid 	smiles	 smilestrue 	smiles	 similartanimoto 	0	 similardice 	0

   15   16  0  0  0  0            999 V3000
M  V30 BEGIN CTAB
M  V30 COUNTS 15 16 0 0 0
M  V30 BEGIN ATOM
M  V30 1 C -2.5391 -0.1953 0.0000 0
M  V30 2 C -1.7578 -1.3672 0.0000 0
M  V30 3 C -1.7578 0.9766 0.0000 0
M  V30 4 C -0.3906 -0.7812 0.0000 0
M  V30 5 C -0.3906 0.5859 0.0000 0
M  V30 6 C 0.7812 1.1719 0.0000 0
M  V30 7 C 1.9531 -0.7812 0.0000 0
M  V30 8 N 0.7812 -1.5625 0.0000 0
M  V30 9 N 1.9531 0.3906 0.0000 0
M  V30 10 H -3.5156 -0.1953 0.0000 0
M  V30 11 H -2.1484 2.1484 0.0000 0
M  V30 12 H -1.9531 -2.3438 0.0000 0
M  V30 13 H 0.9766 2.3438 0.0000 0
M  V30 14 H 2.9297 -1.3672 0.0000 0
M  V30 15 H 2.7344 0.9766 0.0000 0
M  V30 END ATOM
M  V30 BEGIN BOND
M  V30 1 3 1 2
M  V30 2 1 1 3
M  V30 3 1 1 10
M  V30 4 3 2 4
M  V30 5 1 2 12
M  V30 6 3 3 5
M  V30 7 1 3 11
M  V30 8 1 4 5
M  V30 9 1 4 8
M  V30 10 1 5 6
M  V30 11 1 6 9
M  V30 12 1 6 13
M  V30 13 1 7 8
M  V30 14 1 7 9
M  V30 15 1 7 14
M  V30 16 1 9 15
M  V30 END BOND
M  V30 END CTAB
M  END
>  <ID>
75
$$$$
Structure_76
Score 	 8.0, smilesprid 	smiles	 smilestrue 	smiles	 similartanimoto 	0	 similardice 	0

   15   16  0  0  0  0            999 V3000
M  V30 BEGIN CTAB
M  V30 COUNTS 15 16 0 0 0
M  V30 BEGIN ATOM
M  V30 1 C -2.5391 -0.1953 0.0000 0
M  V30 2 C -1.7578 -1.3672 0.0000 0
M  V30 3 C -1.7578 0.9766 0.0000 0
M  V30 4 C -0.3906 -0.7812 0.0000 0
M  V30 5 C -0.3906 0.5859 0.0000 0
M  V30 6 C 0.7812 1.1719 0.0000 0
M  V30 7 C 1.9531 -0.7812 0.0000 0
M  V30 8 N 0.7812 -1.5625 0.0000 0
M  V30 9 N 1.9531 0.3906 0.0000 0
M  V30 10 H -3.5156 -0.1953 0.0000 0
M  V30 11 H -2.1484 2.1484 0.0000 0
M  V30 12 H -1.9531 -2.3438 0.0000 0
M  V30 13 H 0.9766 2.3438 0.0000 0
M  V30 14 H 2.9297 -1.3672 0.0000 0
M  V30 15 H 2.7344 0.9766 0.0000 0
M  V30 END ATOM
M  V30 BEGIN BOND
M  V30 1 1 1 2
M  V30 2 2 1 3
M  V30 3 1 1 10
M  V30 4 3 2 4
M  V30 5 1 2 12
M  V30 6 3 3 5
M  V30 7 1 3 11
M  V30 8 1 4 5
M  V30 9 1 4 8
M  V30 10 1 5 6
M  V30 11 1 6 9
M  V30 12 1 6 13
M  V30 13 1 7 8
M  V30 14 1 7 9
M  V30 15 1 7 14
M  V30 16 1 9 15
M  V30 END BOND
M  V30 END CTAB
M  END
>  <ID>
76
$$$$
Structure_77
Score 	 10.0, smilesprid 	smiles	 smilestrue 	smiles	 similartanimoto 	0	 similardice 	0

   15   16  0  0  0  0            999 V3000
M  V30 BEGIN CTAB
M  V30 COUNTS 15 16 0 0 0
M  V30 BEGIN ATOM
M  V30 1 C -2.5391 -0.1953 0.0000 0
M  V30 2 C -1.7578 -1.3672 0.0000 0
M  V30 3 C -1.7578 0.9766 0.0000 0
M  V30 4 C -0.3906 -0.7812 0.0000 0
M  V30 5 C -0.3906 0.5859 0.0000 0
M  V30 6 C 0.7812 1.1719 0.0000 0
M  V30 7 C 1.9531 -0.7812 0.0000 0
M  V30 8 N 0.7812 -1.5625 0.0000 0
M  V30 9 N 1.9531 0.3906 0.0000 0
M  V30 10 H -3.5156 -0.1953 0.0000 0
M  V30 11 H -2.1484 2.1484 0.0000 0
M  V30 12 H -1.9531 -2.3438 0.0000 0
M  V30 13 H 0.9766 2.3438 0.0000 0
M  V30 14 H 2.9297 -1.3672 0.0000 0
M  V30 15 H 2.7344 0.9766 0.0000 0
M  V30 END ATOM
M  V30 BEGIN BOND
M  V30 1 2 1 2
M  V30 2 2 1 3
M  V30 3 1 1 10
M  V30 4 3 2 4
M  V30 5 1 2 12
M  V30 6 3 3 5
M  V30 7 1 3 11
M  V30 8 1 4 5
M  V30 9 1 4 8
M  V30 10 1 5 6
M  V30 11 1 6 9
M  V30 12 1 6 13
M  V30 13 1 7 8
M  V30 14 1 7 9
M  V30 15 1 7 14
M  V30 16 1 9 15
M  V30 END BOND
M  V30 END CTAB
M  END
>  <ID>
77
$$$$
Structure_78
Score 	 12.0, smilesprid 	smiles	 smilestrue 	smiles	 similartanimoto 	0	 similardice 	0

   15   16  0  0  0  0            999 V3000
M  V30 BEGIN CTAB
M  V30 COUNTS 15 16 0 0 0
M  V30 BEGIN ATOM
M  V30 1 C -2.5391 -0.1953 0.0000 0
M  V30 2 C -1.7578 -1.3672 0.0000 0
M  V30 3 C -1.7578 0.9766 0.0000 0
M  V30 4 C -0.3906 -0.7812 0.0000 0
M  V30 5 C -0.3906 0.5859 0.0000 0
M  V30 6 C 0.7812 1.1719 0.0000 0
M  V30 7 C 1.9531 -0.7812 0.0000 0
M  V30 8 N 0.7812 -1.5625 0.0000 0
M  V30 9 N 1.9531 0.3906 0.0000 0
M  V30 10 H -3.5156 -0.1953 0.0000 0
M  V30 11 H -2.1484 2.1484 0.0000 0
M  V30 12 H -1.9531 -2.3438 0.0000 0
M  V30 13 H 0.9766 2.3438 0.0000 0
M  V30 14 H 2.9297 -1.3672 0.0000 0
M  V30 15 H 2.7344 0.9766 0.0000 0
M  V30 END ATOM
M  V30 BEGIN BOND
M  V30 1 3 1 2
M  V30 2 2 1 3
M  V30 3 1 1 10
M  V30 4 3 2 4
M  V30 5 1 2 12
M  V30 6 3 3 5
M  V30 7 1 3 11
M  V30 8 1 4 5
M  V30 9 1 4 8
M  V30 10 1 5 6
M  V30 11 1 6 9
M  V30 12 1 6 13
M  V30 13 1 7 8
M  V30 14 1 7 9
M  V30 15 1 7 14
M  V30 16 1 9 15
M  V30 END BOND
M  V30 END CTAB
M  END
>  <ID>
78
$$$$
Structure_79
Score 	 10.0, smilesprid 	smiles	 smilestrue 	smiles	 similartanimoto 	0	 similardice 	0

   15   16  0  0  0  0            999 V3000
M  V30 BEGIN CTAB
M  V30 COUNTS 15 16 0 0 0
M  V30 BEGIN ATOM
M  V30 1 C -2.5391 -0.1953 0.0000 0
M  V30 2 C -1.7578 -1.3672 0.0000 0
M  V30 3 C -1.7578 0.9766 0.0000 0
M  V30 4 C -0.3906 -0.7812 0.0000 0
M  V30 5 C -0.3906 0.5859 0.0000 0
M  V30 6 C 0.7812 1.1719 0.0000 0
M  V30 7 C 1.9531 -0.7812 0.0000 0
M  V30 8 N 0.7812 -1.5625 0.0000 0
M  V30 9 N 1.9531 0.3906 0.0000 0
M  V30 10 H -3.5156 -0.1953 0.0000 0
M  V30 11 H -2.1484 2.1484 0.0000 0
M  V30 12 H -1.9531 -2.3438 0.0000 0
M  V30 13 H 0.9766 2.3438 0.0000 0
M  V30 14 H 2.9297 -1.3672 0.0000 0
M  V30 15 H 2.7344 0.9766 0.0000 0
M  V30 END ATOM
M  V30 BEGIN BOND
M  V30 1 1 1 2
M  V30 2 3 1 3
M  V30 3 1 1 10
M  V30 4 3 2 4
M  V30 5 1 2 12
M  V30 6 3 3 5
M  V30 7 1 3 11
M  V30 8 1 4 5
M  V30 9 1 4 8
M  V30 10 1 5 6
M  V30 11 1 6 9
M  V30 12 1 6 13
M  V30 13 1 7 8
M  V30 14 1 7 9
M  V30 15 1 7 14
M  V30 16 1 9 15
M  V30 END BOND
M  V30 END CTAB
M  END
>  <ID>
79
$$$$
Structure_80
Score 	 12.0, smilesprid 	smiles	 smilestrue 	smiles	 similartanimoto 	0	 similardice 	0

   15   16  0  0  0  0            999 V3000
M  V30 BEGIN CTAB
M  V30 COUNTS 15 16 0 0 0
M  V30 BEGIN ATOM
M  V30 1 C -2.5391 -0.1953 0.0000 0
M  V30 2 C -1.7578 -1.3672 0.0000 0
M  V30 3 C -1.7578 0.9766 0.0000 0
M  V30 4 C -0.3906 -0.7812 0.0000 0
M  V30 5 C -0.3906 0.5859 0.0000 0
M  V30 6 C 0.7812 1.1719 0.0000 0
M  V30 7 C 1.9531 -0.7812 0.0000 0
M  V30 8 N 0.7812 -1.5625 0.0000 0
M  V30 9 N 1.9531 0.3906 0.0000 0
M  V30 10 H -3.5156 -0.1953 0.0000 0
M  V30 11 H -2.1484 2.1484 0.0000 0
M  V30 12 H -1.9531 -2.3438 0.0000 0
M  V30 13 H 0.9766 2.3438 0.0000 0
M  V30 14 H 2.9297 -1.3672 0.0000 0
M  V30 15 H 2.7344 0.9766 0.0000 0
M  V30 END ATOM
M  V30 BEGIN BOND
M  V30 1 2 1 2
M  V30 2 3 1 3
M  V30 3 1 1 10
M  V30 4 3 2 4
M  V30 5 1 2 12
M  V30 6 3 3 5
M  V30 7 1 3 11
M  V30 8 1 4 5
M  V30 9 1 4 8
M  V30 10 1 5 6
M  V30 11 1 6 9
M  V30 12 1 6 13
M  V30 13 1 7 8
M  V30 14 1 7 9
M  V30 15 1 7 14
M  V30 16 1 9 15
M  V30 END BOND
M  V30 END CTAB
M  END
>  <ID>
80
$$$$
Structure_81
Score 	 14.0, smilesprid 	smiles	 smilestrue 	smiles	 similartanimoto 	0	 similardice 	0

   15   16  0  0  0  0            999 V3000
M  V30 BEGIN CTAB
M  V30 COUNTS 15 16 0 0 0
M  V30 BEGIN ATOM
M  V30 1 C -2.5391 -0.1953 0.0000 0
M  V30 2 C -1.7578 -1.3672 0.0000 0
M  V30 3 C -1.7578 0.9766 0.0000 0
M  V30 4 C -0.3906 -0.7812 0.0000 0
M  V30 5 C -0.3906 0.5859 0.0000 0
M  V30 6 C 0.7812 1.1719 0.0000 0
M  V30 7 C 1.9531 -0.7812 0.0000 0
M  V30 8 N 0.7812 -1.5625 0.0000 0
M  V30 9 N 1.9531 0.3906 0.0000 0
M  V30 10 H -3.5156 -0.1953 0.0000 0
M  V30 11 H -2.1484 2.1484 0.0000 0
M  V30 12 H -1.9531 -2.3438 0.0000 0
M  V30 13 H 0.9766 2.3438 0.0000 0
M  V30 14 H 2.9297 -1.3672 0.0000 0
M  V30 15 H 2.7344 0.9766 0.0000 0
M  V30 END ATOM
M  V30 BEGIN BOND
M  V30 1 3 1 2
M  V30 2 3 1 3
M  V30 3 1 1 10
M  V30 4 3 2 4
M  V30 5 1 2 12
M  V30 6 3 3 5
M  V30 7 1 3 11
M  V30 8 1 4 5
M  V30 9 1 4 8
M  V30 10 1 5 6
M  V30 11 1 6 9
M  V30 12 1 6 13
M  V30 13 1 7 8
M  V30 14 1 7 9
M  V30 15 1 7 14
M  V30 16 1 9 15
M  V30 END BOND
M  V30 END CTAB
M  END
>  <ID>
81
$$$$
Structure_82
Score 	 6.0, smilesprid 	smiles	 smilestrue 	smiles	 similartanimoto 	0	 similardice 	0

   15   16  0  0  0  0            999 V3000
M  V30 BEGIN CTAB
M  V30 COUNTS 15 16 0 0 0
M  V30 BEGIN ATOM
M  V30 1 C -2.5391 -0.1953 0.0000 0
M  V30 2 C -1.7578 -1.3672 0.0000 0
M  V30 3 C -1.7578 0.9766 0.0000 0
M  V30 4 C -0.3906 -0.7812 0.0000 0
M  V30 5 C -0.3906 0.5859 0.0000 0
M  V30 6 C 0.7812 1.1719 0.0000 0
M  V30 7 C 1.9531 -0.7812 0.0000 0
M  V30 8 N 0.7812 -1.5625 0.0000 0
M  V30 9 N 1.9531 0.3906 0.0000 0
M  V30 10 H -3.5156 -0.1953 0.0000 0
M  V30 11 H -2.1484 2.1484 0.0000 0
M  V30 12 H -1.9531 -2.3438 0.0000 0
M  V30 13 H 0.9766 2.3438 0.0000 0
M  V30 14 H 2.9297 -1.3672 0.0000 0
M  V30 15 H 2.7344 0.9766 0.0000 0
M  V30 END ATOM
M  V30 BEGIN BOND
M  V30 1 1 1 2
M  V30 2 1 1 3
M  V30 3 1 1 10
M  V30 4 1 2 4
M  V30 5 1 2 12
M  V30 6 1 3 5
M  V30 7 1 3 11
M  V30 8 2 4 5
M  V30 9 1 4 8
M  V30 10 1 5 6
M  V30 11 1 6 9
M  V30 12 1 6 13
M  V30 13 1 7 8
M  V30 14 1 7 9
M  V30 15 1 7 14
M  V30 16 1 9 15
M  V30 END BOND
M  V30 END CTAB
M  END
>  <ID>
82
$$$$
Structure_83
Score 	 4.0, smilesprid 	smiles	 smilestrue 	smiles	 similartanimoto 	0	 similardice 	0

   15   16  0  0  0  0            999 V3000
M  V30 BEGIN CTAB
M  V30 COUNTS 15 16 0 0 0
M  V30 BEGIN ATOM
M  V30 1 C -2.5391 -0.1953 0.0000 0
M  V30 2 C -1.7578 -1.3672 0.0000 0
M  V30 3 C -1.7578 0.9766 0.0000 0
M  V30 4 C -0.3906 -0.7812 0.0000 0
M  V30 5 C -0.3906 0.5859 0.0000 0
M  V30 6 C 0.7812 1.1719 0.0000 0
M  V30 7 C 1.9531 -0.7812 0.0000 0
M  V30 8 N 0.7812 -1.5625 0.0000 0
M  V30 9 N 1.9531 0.3906 0.0000 0
M  V30 10 H -3.5156 -0.1953 0.0000 0
M  V30 11 H -2.1484 2.1484 0.0000 0
M  V30 12 H -1.9531 -2.3438 0.0000 0
M  V30 13 H 0.9766 2.3438 0.0000 0
M  V30 14 H 2.9297 -1.3672 0.0000 0
M  V30 15 H 2.7344 0.9766 0.0000 0
M  V30 END ATOM
M  V30 BEGIN BOND
M  V30 1 2 1 2
M  V30 2 1 1 3
M  V30 3 1 1 10
M  V30 4 1 2 4
M  V30 5 1 2 12
M  V30 6 1 3 5
M  V30 7 1 3 11
M  V30 8 2 4 5
M  V30 9 1 4 8
M  V30 10 1 5 6
M  V30 11 1 6 9
M  V30 12 1 6 13
M  V30 13 1 7 8
M  V30 14 1 7 9
M  V30 15 1 7 14
M  V30 16 1 9 15
M  V30 END BOND
M  V30 END CTAB
M  END
>  <ID>
83
$$$$
Structure_84
Score 	 6.0, smilesprid 	smiles	 smilestrue 	smiles	 similartanimoto 	0	 similardice 	0

   15   16  0  0  0  0            999 V3000
M  V30 BEGIN CTAB
M  V30 COUNTS 15 16 0 0 0
M  V30 BEGIN ATOM
M  V30 1 C -2.5391 -0.1953 0.0000 0
M  V30 2 C -1.7578 -1.3672 0.0000 0
M  V30 3 C -1.7578 0.9766 0.0000 0
M  V30 4 C -0.3906 -0.7812 0.0000 0
M  V30 5 C -0.3906 0.5859 0.0000 0
M  V30 6 C 0.7812 1.1719 0.0000 0
M  V30 7 C 1.9531 -0.7812 0.0000 0
M  V30 8 N 0.7812 -1.5625 0.0000 0
M  V30 9 N 1.9531 0.3906 0.0000 0
M  V30 10 H -3.5156 -0.1953 0.0000 0
M  V30 11 H -2.1484 2.1484 0.0000 0
M  V30 12 H -1.9531 -2.3438 0.0000 0
M  V30 13 H 0.9766 2.3438 0.0000 0
M  V30 14 H 2.9297 -1.3672 0.0000 0
M  V30 15 H 2.7344 0.9766 0.0000 0
M  V30 END ATOM
M  V30 BEGIN BOND
M  V30 1 3 1 2
M  V30 2 1 1 3
M  V30 3 1 1 10
M  V30 4 1 2 4
M  V30 5 1 2 12
M  V30 6 1 3 5
M  V30 7 1 3 11
M  V30 8 2 4 5
M  V30 9 1 4 8
M  V30 10 1 5 6
M  V30 11 1 6 9
M  V30 12 1 6 13
M  V30 13 1 7 8
M  V30 14 1 7 9
M  V30 15 1 7 14
M  V30 16 1 9 15
M  V30 END BOND
M  V30 END CTAB
M  END
>  <ID>
84
$$$$
Structure_85
Score 	 4.0, smilesprid 	smiles	 smilestrue 	smiles	 similartanimoto 	0	 similardice 	0

   15   16  0  0  0  0            999 V3000
M  V30 BEGIN CTAB
M  V30 COUNTS 15 16 0 0 0
M  V30 BEGIN ATOM
M  V30 1 C -2.5391 -0.1953 0.0000 0
M  V30 2 C -1.7578 -1.3672 0.0000 0
M  V30 3 C -1.7578 0.9766 0.0000 0
M  V30 4 C -0.3906 -0.7812 0.0000 0
M  V30 5 C -0.3906 0.5859 0.0000 0
M  V30 6 C 0.7812 1.1719 0.0000 0
M  V30 7 C 1.9531 -0.7812 0.0000 0
M  V30 8 N 0.7812 -1.5625 0.0000 0
M  V30 9 N 1.9531 0.3906 0.0000 0
M  V30 10 H -3.5156 -0.1953 0.0000 0
M  V30 11 H -2.1484 2.1484 0.0000 0
M  V30 12 H -1.9531 -2.3438 0.0000 0
M  V30 13 H 0.9766 2.3438 0.0000 0
M  V30 14 H 2.9297 -1.3672 0.0000 0
M  V30 15 H 2.7344 0.9766 0.0000 0
M  V30 END ATOM
M  V30 BEGIN BOND
M  V30 1 1 1 2
M  V30 2 2 1 3
M  V30 3 1 1 10
M  V30 4 1 2 4
M  V30 5 1 2 12
M  V30 6 1 3 5
M  V30 7 1 3 11
M  V30 8 2 4 5
M  V30 9 1 4 8
M  V30 10 1 5 6
M  V30 11 1 6 9
M  V30 12 1 6 13
M  V30 13 1 7 8
M  V30 14 1 7 9
M  V30 15 1 7 14
M  V30 16 1 9 15
M  V30 END BOND
M  V30 END CTAB
M  END
>  <ID>
85
$$$$
Structure_86
Score 	 4.0, smilesprid 	smiles	 smilestrue 	smiles	 similartanimoto 	0	 similardice 	0

   15   16  0  0  0  0            999 V3000
M  V30 BEGIN CTAB
M  V30 COUNTS 15 16 0 0 0
M  V30 BEGIN ATOM
M  V30 1 C -2.5391 -0.1953 0.0000 0
M  V30 2 C -1.7578 -1.3672 0.0000 0
M  V30 3 C -1.7578 0.9766 0.0000 0
M  V30 4 C -0.3906 -0.7812 0.0000 0
M  V30 5 C -0.3906 0.5859 0.0000 0
M  V30 6 C 0.7812 1.1719 0.0000 0
M  V30 7 C 1.9531 -0.7812 0.0000 0
M  V30 8 N 0.7812 -1.5625 0.0000 0
M  V30 9 N 1.9531 0.3906 0.0000 0
M  V30 10 H -3.5156 -0.1953 0.0000 0
M  V30 11 H -2.1484 2.1484 0.0000 0
M  V30 12 H -1.9531 -2.3438 0.0000 0
M  V30 13 H 0.9766 2.3438 0.0000 0
M  V30 14 H 2.9297 -1.3672 0.0000 0
M  V30 15 H 2.7344 0.9766 0.0000 0
M  V30 END ATOM
M  V30 BEGIN BOND
M  V30 1 2 1 2
M  V30 2 2 1 3
M  V30 3 1 1 10
M  V30 4 1 2 4
M  V30 5 1 2 12
M  V30 6 1 3 5
M  V30 7 1 3 11
M  V30 8 2 4 5
M  V30 9 1 4 8
M  V30 10 1 5 6
M  V30 11 1 6 9
M  V30 12 1 6 13
M  V30 13 1 7 8
M  V30 14 1 7 9
M  V30 15 1 7 14
M  V30 16 1 9 15
M  V30 END BOND
M  V30 END CTAB
M  END
>  <ID>
86
$$$$
Structure_87
Score 	 6.0, smilesprid 	smiles	 smilestrue 	smiles	 similartanimoto 	0	 similardice 	0

   15   16  0  0  0  0            999 V3000
M  V30 BEGIN CTAB
M  V30 COUNTS 15 16 0 0 0
M  V30 BEGIN ATOM
M  V30 1 C -2.5391 -0.1953 0.0000 0
M  V30 2 C -1.7578 -1.3672 0.0000 0
M  V30 3 C -1.7578 0.9766 0.0000 0
M  V30 4 C -0.3906 -0.7812 0.0000 0
M  V30 5 C -0.3906 0.5859 0.0000 0
M  V30 6 C 0.7812 1.1719 0.0000 0
M  V30 7 C 1.9531 -0.7812 0.0000 0
M  V30 8 N 0.7812 -1.5625 0.0000 0
M  V30 9 N 1.9531 0.3906 0.0000 0
M  V30 10 H -3.5156 -0.1953 0.0000 0
M  V30 11 H -2.1484 2.1484 0.0000 0
M  V30 12 H -1.9531 -2.3438 0.0000 0
M  V30 13 H 0.9766 2.3438 0.0000 0
M  V30 14 H 2.9297 -1.3672 0.0000 0
M  V30 15 H 2.7344 0.9766 0.0000 0
M  V30 END ATOM
M  V30 BEGIN BOND
M  V30 1 3 1 2
M  V30 2 2 1 3
M  V30 3 1 1 10
M  V30 4 1 2 4
M  V30 5 1 2 12
M  V30 6 1 3 5
M  V30 7 1 3 11
M  V30 8 2 4 5
M  V30 9 1 4 8
M  V30 10 1 5 6
M  V30 11 1 6 9
M  V30 12 1 6 13
M  V30 13 1 7 8
M  V30 14 1 7 9
M  V30 15 1 7 14
M  V30 16 1 9 15
M  V30 END BOND
M  V30 END CTAB
M  END
>  <ID>
87
$$$$
Structure_88
Score 	 6.0, smilesprid 	smiles	 smilestrue 	smiles	 similartanimoto 	0	 similardice 	0

   15   16  0  0  0  0            999 V3000
M  V30 BEGIN CTAB
M  V30 COUNTS 15 16 0 0 0
M  V30 BEGIN ATOM
M  V30 1 C -2.5391 -0.1953 0.0000 0
M  V30 2 C -1.7578 -1.3672 0.0000 0
M  V30 3 C -1.7578 0.9766 0.0000 0
M  V30 4 C -0.3906 -0.7812 0.0000 0
M  V30 5 C -0.3906 0.5859 0.0000 0
M  V30 6 C 0.7812 1.1719 0.0000 0
M  V30 7 C 1.9531 -0.7812 0.0000 0
M  V30 8 N 0.7812 -1.5625 0.0000 0
M  V30 9 N 1.9531 0.3906 0.0000 0
M  V30 10 H -3.5156 -0.1953 0.0000 0
M  V30 11 H -2.1484 2.1484 0.0000 0
M  V30 12 H -1.9531 -2.3438 0.0000 0
M  V30 13 H 0.9766 2.3438 0.0000 0
M  V30 14 H 2.9297 -1.3672 0.0000 0
M  V30 15 H 2.7344 0.9766 0.0000 0
M  V30 END ATOM
M  V30 BEGIN BOND
M  V30 1 1 1 2
M  V30 2 3 1 3
M  V30 3 1 1 10
M  V30 4 1 2 4
M  V30 5 1 2 12
M  V30 6 1 3 5
M  V30 7 1 3 11
M  V30 8 2 4 5
M  V30 9 1 4 8
M  V30 10 1 5 6
M  V30 11 1 6 9
M  V30 12 1 6 13
M  V30 13 1 7 8
M  V30 14 1 7 9
M  V30 15 1 7 14
M  V30 16 1 9 15
M  V30 END BOND
M  V30 END CTAB
M  END
>  <ID>
88
$$$$
Structure_89
Score 	 6.0, smilesprid 	smiles	 smilestrue 	smiles	 similartanimoto 	0	 similardice 	0

   15   16  0  0  0  0            999 V3000
M  V30 BEGIN CTAB
M  V30 COUNTS 15 16 0 0 0
M  V30 BEGIN ATOM
M  V30 1 C -2.5391 -0.1953 0.0000 0
M  V30 2 C -1.7578 -1.3672 0.0000 0
M  V30 3 C -1.7578 0.9766 0.0000 0
M  V30 4 C -0.3906 -0.7812 0.0000 0
M  V30 5 C -0.3906 0.5859 0.0000 0
M  V30 6 C 0.7812 1.1719 0.0000 0
M  V30 7 C 1.9531 -0.7812 0.0000 0
M  V30 8 N 0.7812 -1.5625 0.0000 0
M  V30 9 N 1.9531 0.3906 0.0000 0
M  V30 10 H -3.5156 -0.1953 0.0000 0
M  V30 11 H -2.1484 2.1484 0.0000 0
M  V30 12 H -1.9531 -2.3438 0.0000 0
M  V30 13 H 0.9766 2.3438 0.0000 0
M  V30 14 H 2.9297 -1.3672 0.0000 0
M  V30 15 H 2.7344 0.9766 0.0000 0
M  V30 END ATOM
M  V30 BEGIN BOND
M  V30 1 2 1 2
M  V30 2 3 1 3
M  V30 3 1 1 10
M  V30 4 1 2 4
M  V30 5 1 2 12
M  V30 6 1 3 5
M  V30 7 1 3 11
M  V30 8 2 4 5
M  V30 9 1 4 8
M  V30 10 1 5 6
M  V30 11 1 6 9
M  V30 12 1 6 13
M  V30 13 1 7 8
M  V30 14 1 7 9
M  V30 15 1 7 14
M  V30 16 1 9 15
M  V30 END BOND
M  V30 END CTAB
M  END
>  <ID>
89
$$$$
Structure_90
Score 	 8.0, smilesprid 	smiles	 smilestrue 	smiles	 similartanimoto 	0	 similardice 	0

   15   16  0  0  0  0            999 V3000
M  V30 BEGIN CTAB
M  V30 COUNTS 15 16 0 0 0
M  V30 BEGIN ATOM
M  V30 1 C -2.5391 -0.1953 0.0000 0
M  V30 2 C -1.7578 -1.3672 0.0000 0
M  V30 3 C -1.7578 0.9766 0.0000 0
M  V30 4 C -0.3906 -0.7812 0.0000 0
M  V30 5 C -0.3906 0.5859 0.0000 0
M  V30 6 C 0.7812 1.1719 0.0000 0
M  V30 7 C 1.9531 -0.7812 0.0000 0
M  V30 8 N 0.7812 -1.5625 0.0000 0
M  V30 9 N 1.9531 0.3906 0.0000 0
M  V30 10 H -3.5156 -0.1953 0.0000 0
M  V30 11 H -2.1484 2.1484 0.0000 0
M  V30 12 H -1.9531 -2.3438 0.0000 0
M  V30 13 H 0.9766 2.3438 0.0000 0
M  V30 14 H 2.9297 -1.3672 0.0000 0
M  V30 15 H 2.7344 0.9766 0.0000 0
M  V30 END ATOM
M  V30 BEGIN BOND
M  V30 1 3 1 2
M  V30 2 3 1 3
M  V30 3 1 1 10
M  V30 4 1 2 4
M  V30 5 1 2 12
M  V30 6 1 3 5
M  V30 7 1 3 11
M  V30 8 2 4 5
M  V30 9 1 4 8
M  V30 10 1 5 6
M  V30 11 1 6 9
M  V30 12 1 6 13
M  V30 13 1 7 8
M  V30 14 1 7 9
M  V30 15 1 7 14
M  V30 16 1 9 15
M  V30 END BOND
M  V30 END CTAB
M  END
>  <ID>
90
$$$$
Structure_91
Score 	 6.0, smilesprid 	smiles	 smilestrue 	smiles	 similartanimoto 	0	 similardice 	0

   15   16  0  0  0  0            999 V3000
M  V30 BEGIN CTAB
M  V30 COUNTS 15 16 0 0 0
M  V30 BEGIN ATOM
M  V30 1 C -2.5391 -0.1953 0.0000 0
M  V30 2 C -1.7578 -1.3672 0.0000 0
M  V30 3 C -1.7578 0.9766 0.0000 0
M  V30 4 C -0.3906 -0.7812 0.0000 0
M  V30 5 C -0.3906 0.5859 0.0000 0
M  V30 6 C 0.7812 1.1719 0.0000 0
M  V30 7 C 1.9531 -0.7812 0.0000 0
M  V30 8 N 0.7812 -1.5625 0.0000 0
M  V30 9 N 1.9531 0.3906 0.0000 0
M  V30 10 H -3.5156 -0.1953 0.0000 0
M  V30 11 H -2.1484 2.1484 0.0000 0
M  V30 12 H -1.9531 -2.3438 0.0000 0
M  V30 13 H 0.9766 2.3438 0.0000 0
M  V30 14 H 2.9297 -1.3672 0.0000 0
M  V30 15 H 2.7344 0.9766 0.0000 0
M  V30 END ATOM
M  V30 BEGIN BOND
M  V30 1 1 1 2
M  V30 2 1 1 3
M  V30 3 1 1 10
M  V30 4 1 2 4
M  V30 5 1 2 12
M  V30 6 2 3 5
M  V30 7 1 3 11
M  V30 8 2 4 5
M  V30 9 1 4 8
M  V30 10 1 5 6
M  V30 11 1 6 9
M  V30 12 1 6 13
M  V30 13 1 7 8
M  V30 14 1 7 9
M  V30 15 1 7 14
M  V30 16 1 9 15
M  V30 END BOND
M  V30 END CTAB
M  END
>  <ID>
91
$$$$
Structure_92
Score 	 4.0, smilesprid 	smiles	 smilestrue 	smiles	 similartanimoto 	0	 similardice 	0

   15   16  0  0  0  0            999 V3000
M  V30 BEGIN CTAB
M  V30 COUNTS 15 16 0 0 0
M  V30 BEGIN ATOM
M  V30 1 C -2.5391 -0.1953 0.0000 0
M  V30 2 C -1.7578 -1.3672 0.0000 0
M  V30 3 C -1.7578 0.9766 0.0000 0
M  V30 4 C -0.3906 -0.7812 0.0000 0
M  V30 5 C -0.3906 0.5859 0.0000 0
M  V30 6 C 0.7812 1.1719 0.0000 0
M  V30 7 C 1.9531 -0.7812 0.0000 0
M  V30 8 N 0.7812 -1.5625 0.0000 0
M  V30 9 N 1.9531 0.3906 0.0000 0
M  V30 10 H -3.5156 -0.1953 0.0000 0
M  V30 11 H -2.1484 2.1484 0.0000 0
M  V30 12 H -1.9531 -2.3438 0.0000 0
M  V30 13 H 0.9766 2.3438 0.0000 0
M  V30 14 H 2.9297 -1.3672 0.0000 0
M  V30 15 H 2.7344 0.9766 0.0000 0
M  V30 END ATOM
M  V30 BEGIN BOND
M  V30 1 2 1 2
M  V30 2 1 1 3
M  V30 3 1 1 10
M  V30 4 1 2 4
M  V30 5 1 2 12
M  V30 6 2 3 5
M  V30 7 1 3 11
M  V30 8 2 4 5
M  V30 9 1 4 8
M  V30 10 1 5 6
M  V30 11 1 6 9
M  V30 12 1 6 13
M  V30 13 1 7 8
M  V30 14 1 7 9
M  V30 15 1 7 14
M  V30 16 1 9 15
M  V30 END BOND
M  V30 END CTAB
M  END
>  <ID>
92
$$$$
Structure_93
Score 	 6.0, smilesprid 	smiles	 smilestrue 	smiles	 similartanimoto 	0	 similardice 	0

   15   16  0  0  0  0            999 V3000
M  V30 BEGIN CTAB
M  V30 COUNTS 15 16 0 0 0
M  V30 BEGIN ATOM
M  V30 1 C -2.5391 -0.1953 0.0000 0
M  V30 2 C -1.7578 -1.3672 0.0000 0
M  V30 3 C -1.7578 0.9766 0.0000 0
M  V30 4 C -0.3906 -0.7812 0.0000 0
M  V30 5 C -0.3906 0.5859 0.0000 0
M  V30 6 C 0.7812 1.1719 0.0000 0
M  V30 7 C 1.9531 -0.7812 0.0000 0
M  V30 8 N 0.7812 -1.5625 0.0000 0
M  V30 9 N 1.9531 0.3906 0.0000 0
M  V30 10 H -3.5156 -0.1953 0.0000 0
M  V30 11 H -2.1484 2.1484 0.0000 0
M  V30 12 H -1.9531 -2.3438 0.0000 0
M  V30 13 H 0.9766 2.3438 0.0000 0
M  V30 14 H 2.9297 -1.3672 0.0000 0
M  V30 15 H 2.7344 0.9766 0.0000 0
M  V30 END ATOM
M  V30 BEGIN BOND
M  V30 1 3 1 2
M  V30 2 1 1 3
M  V30 3 1 1 10
M  V30 4 1 2 4
M  V30 5 1 2 12
M  V30 6 2 3 5
M  V30 7 1 3 11
M  V30 8 2 4 5
M  V30 9 1 4 8
M  V30 10 1 5 6
M  V30 11 1 6 9
M  V30 12 1 6 13
M  V30 13 1 7 8
M  V30 14 1 7 9
M  V30 15 1 7 14
M  V30 16 1 9 15
M  V30 END BOND
M  V30 END CTAB
M  END
>  <ID>
93
$$$$
Structure_94
Score 	 6.0, smilesprid 	smiles	 smilestrue 	smiles	 similartanimoto 	0	 similardice 	0

   15   16  0  0  0  0            999 V3000
M  V30 BEGIN CTAB
M  V30 COUNTS 15 16 0 0 0
M  V30 BEGIN ATOM
M  V30 1 C -2.5391 -0.1953 0.0000 0
M  V30 2 C -1.7578 -1.3672 0.0000 0
M  V30 3 C -1.7578 0.9766 0.0000 0
M  V30 4 C -0.3906 -0.7812 0.0000 0
M  V30 5 C -0.3906 0.5859 0.0000 0
M  V30 6 C 0.7812 1.1719 0.0000 0
M  V30 7 C 1.9531 -0.7812 0.0000 0
M  V30 8 N 0.7812 -1.5625 0.0000 0
M  V30 9 N 1.9531 0.3906 0.0000 0
M  V30 10 H -3.5156 -0.1953 0.0000 0
M  V30 11 H -2.1484 2.1484 0.0000 0
M  V30 12 H -1.9531 -2.3438 0.0000 0
M  V30 13 H 0.9766 2.3438 0.0000 0
M  V30 14 H 2.9297 -1.3672 0.0000 0
M  V30 15 H 2.7344 0.9766 0.0000 0
M  V30 END ATOM
M  V30 BEGIN BOND
M  V30 1 1 1 2
M  V30 2 2 1 3
M  V30 3 1 1 10
M  V30 4 1 2 4
M  V30 5 1 2 12
M  V30 6 2 3 5
M  V30 7 1 3 11
M  V30 8 2 4 5
M  V30 9 1 4 8
M  V30 10 1 5 6
M  V30 11 1 6 9
M  V30 12 1 6 13
M  V30 13 1 7 8
M  V30 14 1 7 9
M  V30 15 1 7 14
M  V30 16 1 9 15
M  V30 END BOND
M  V30 END CTAB
M  END
>  <ID>
94
$$$$
Structure_95
Score 	 6.0, smilesprid 	smiles	 smilestrue 	smiles	 similartanimoto 	0	 similardice 	0

   15   16  0  0  0  0            999 V3000
M  V30 BEGIN CTAB
M  V30 COUNTS 15 16 0 0 0
M  V30 BEGIN ATOM
M  V30 1 C -2.5391 -0.1953 0.0000 0
M  V30 2 C -1.7578 -1.3672 0.0000 0
M  V30 3 C -1.7578 0.9766 0.0000 0
M  V30 4 C -0.3906 -0.7812 0.0000 0
M  V30 5 C -0.3906 0.5859 0.0000 0
M  V30 6 C 0.7812 1.1719 0.0000 0
M  V30 7 C 1.9531 -0.7812 0.0000 0
M  V30 8 N 0.7812 -1.5625 0.0000 0
M  V30 9 N 1.9531 0.3906 0.0000 0
M  V30 10 H -3.5156 -0.1953 0.0000 0
M  V30 11 H -2.1484 2.1484 0.0000 0
M  V30 12 H -1.9531 -2.3438 0.0000 0
M  V30 13 H 0.9766 2.3438 0.0000 0
M  V30 14 H 2.9297 -1.3672 0.0000 0
M  V30 15 H 2.7344 0.9766 0.0000 0
M  V30 END ATOM
M  V30 BEGIN BOND
M  V30 1 2 1 2
M  V30 2 2 1 3
M  V30 3 1 1 10
M  V30 4 1 2 4
M  V30 5 1 2 12
M  V30 6 2 3 5
M  V30 7 1 3 11
M  V30 8 2 4 5
M  V30 9 1 4 8
M  V30 10 1 5 6
M  V30 11 1 6 9
M  V30 12 1 6 13
M  V30 13 1 7 8
M  V30 14 1 7 9
M  V30 15 1 7 14
M  V30 16 1 9 15
M  V30 END BOND
M  V30 END CTAB
M  END
>  <ID>
95
$$$$
Structure_96
Score 	 8.0, smilesprid 	smiles	 smilestrue 	smiles	 similartanimoto 	0	 similardice 	0

   15   16  0  0  0  0            999 V3000
M  V30 BEGIN CTAB
M  V30 COUNTS 15 16 0 0 0
M  V30 BEGIN ATOM
M  V30 1 C -2.5391 -0.1953 0.0000 0
M  V30 2 C -1.7578 -1.3672 0.0000 0
M  V30 3 C -1.7578 0.9766 0.0000 0
M  V30 4 C -0.3906 -0.7812 0.0000 0
M  V30 5 C -0.3906 0.5859 0.0000 0
M  V30 6 C 0.7812 1.1719 0.0000 0
M  V30 7 C 1.9531 -0.7812 0.0000 0
M  V30 8 N 0.7812 -1.5625 0.0000 0
M  V30 9 N 1.9531 0.3906 0.0000 0
M  V30 10 H -3.5156 -0.1953 0.0000 0
M  V30 11 H -2.1484 2.1484 0.0000 0
M  V30 12 H -1.9531 -2.3438 0.0000 0
M  V30 13 H 0.9766 2.3438 0.0000 0
M  V30 14 H 2.9297 -1.3672 0.0000 0
M  V30 15 H 2.7344 0.9766 0.0000 0
M  V30 END ATOM
M  V30 BEGIN BOND
M  V30 1 3 1 2
M  V30 2 2 1 3
M  V30 3 1 1 10
M  V30 4 1 2 4
M  V30 5 1 2 12
M  V30 6 2 3 5
M  V30 7 1 3 11
M  V30 8 2 4 5
M  V30 9 1 4 8
M  V30 10 1 5 6
M  V30 11 1 6 9
M  V30 12 1 6 13
M  V30 13 1 7 8
M  V30 14 1 7 9
M  V30 15 1 7 14
M  V30 16 1 9 15
M  V30 END BOND
M  V30 END CTAB
M  END
>  <ID>
96
$$$$
Structure_97
Score 	 8.0, smilesprid 	smiles	 smilestrue 	smiles	 similartanimoto 	0	 similardice 	0

   15   16  0  0  0  0            999 V3000
M  V30 BEGIN CTAB
M  V30 COUNTS 15 16 0 0 0
M  V30 BEGIN ATOM
M  V30 1 C -2.5391 -0.1953 0.0000 0
M  V30 2 C -1.7578 -1.3672 0.0000 0
M  V30 3 C -1.7578 0.9766 0.0000 0
M  V30 4 C -0.3906 -0.7812 0.0000 0
M  V30 5 C -0.3906 0.5859 0.0000 0
M  V30 6 C 0.7812 1.1719 0.0000 0
M  V30 7 C 1.9531 -0.7812 0.0000 0
M  V30 8 N 0.7812 -1.5625 0.0000 0
M  V30 9 N 1.9531 0.3906 0.0000 0
M  V30 10 H -3.5156 -0.1953 0.0000 0
M  V30 11 H -2.1484 2.1484 0.0000 0
M  V30 12 H -1.9531 -2.3438 0.0000 0
M  V30 13 H 0.9766 2.3438 0.0000 0
M  V30 14 H 2.9297 -1.3672 0.0000 0
M  V30 15 H 2.7344 0.9766 0.0000 0
M  V30 END ATOM
M  V30 BEGIN BOND
M  V30 1 1 1 2
M  V30 2 3 1 3
M  V30 3 1 1 10
M  V30 4 1 2 4
M  V30 5 1 2 12
M  V30 6 2 3 5
M  V30 7 1 3 11
M  V30 8 2 4 5
M  V30 9 1 4 8
M  V30 10 1 5 6
M  V30 11 1 6 9
M  V30 12 1 6 13
M  V30 13 1 7 8
M  V30 14 1 7 9
M  V30 15 1 7 14
M  V30 16 1 9 15
M  V30 END BOND
M  V30 END CTAB
M  END
>  <ID>
97
$$$$
Structure_98
Score 	 8.0, smilesprid 	smiles	 smilestrue 	smiles	 similartanimoto 	0	 similardice 	0

   15   16  0  0  0  0            999 V3000
M  V30 BEGIN CTAB
M  V30 COUNTS 15 16 0 0 0
M  V30 BEGIN ATOM
M  V30 1 C -2.5391 -0.1953 0.0000 0
M  V30 2 C -1.7578 -1.3672 0.0000 0
M  V30 3 C -1.7578 0.9766 0.0000 0
M  V30 4 C -0.3906 -0.7812 0.0000 0
M  V30 5 C -0.3906 0.5859 0.0000 0
M  V30 6 C 0.7812 1.1719 0.0000 0
M  V30 7 C 1.9531 -0.7812 0.0000 0
M  V30 8 N 0.7812 -1.5625 0.0000 0
M  V30 9 N 1.9531 0.3906 0.0000 0
M  V30 10 H -3.5156 -0.1953 0.0000 0
M  V30 11 H -2.1484 2.1484 0.0000 0
M  V30 12 H -1.9531 -2.3438 0.0000 0
M  V30 13 H 0.9766 2.3438 0.0000 0
M  V30 14 H 2.9297 -1.3672 0.0000 0
M  V30 15 H 2.7344 0.9766 0.0000 0
M  V30 END ATOM
M  V30 BEGIN BOND
M  V30 1 2 1 2
M  V30 2 3 1 3
M  V30 3 1 1 10
M  V30 4 1 2 4
M  V30 5 1 2 12
M  V30 6 2 3 5
M  V30 7 1 3 11
M  V30 8 2 4 5
M  V30 9 1 4 8
M  V30 10 1 5 6
M  V30 11 1 6 9
M  V30 12 1 6 13
M  V30 13 1 7 8
M  V30 14 1 7 9
M  V30 15 1 7 14
M  V30 16 1 9 15
M  V30 END BOND
M  V30 END CTAB
M  END
>  <ID>
98
$$$$
Structure_99
Score 	 10.0, smilesprid 	smiles	 smilestrue 	smiles	 similartanimoto 	0	 similardice 	0

   15   16  0  0  0  0            999 V3000
M  V30 BEGIN CTAB
M  V30 COUNTS 15 16 0 0 0
M  V30 BEGIN ATOM
M  V30 1 C -2.5391 -0.1953 0.0000 0
M  V30 2 C -1.7578 -1.3672 0.0000 0
M  V30 3 C -1.7578 0.9766 0.0000 0
M  V30 4 C -0.3906 -0.7812 0.0000 0
M  V30 5 C -0.3906 0.5859 0.0000 0
M  V30 6 C 0.7812 1.1719 0.0000 0
M  V30 7 C 1.9531 -0.7812 0.0000 0
M  V30 8 N 0.7812 -1.5625 0.0000 0
M  V30 9 N 1.9531 0.3906 0.0000 0
M  V30 10 H -3.5156 -0.1953 0.0000 0
M  V30 11 H -2.1484 2.1484 0.0000 0
M  V30 12 H -1.9531 -2.3438 0.0000 0
M  V30 13 H 0.9766 2.3438 0.0000 0
M  V30 14 H 2.9297 -1.3672 0.0000 0
M  V30 15 H 2.7344 0.9766 0.0000 0
M  V30 END ATOM
M  V30 BEGIN BOND
M  V30 1 3 1 2
M  V30 2 3 1 3
M  V30 3 1 1 10
M  V30 4 1 2 4
M  V30 5 1 2 12
M  V30 6 2 3 5
M  V30 7 1 3 11
M  V30 8 2 4 5
M  V30 9 1 4 8
M  V30 10 1 5 6
M  V30 11 1 6 9
M  V30 12 1 6 13
M  V30 13 1 7 8
M  V30 14 1 7 9
M  V30 15 1 7 14
M  V30 16 1 9 15
M  V30 END BOND
M  V30 END CTAB
M  END
>  <ID>
99
$$$$
Structure_100
Score 	 8.0, smilesprid 	smiles	 smilestrue 	smiles	 similartanimoto 	0	 similardice 	0

   15   16  0  0  0  0            999 V3000
M  V30 BEGIN CTAB
M  V30 COUNTS 15 16 0 0 0
M  V30 BEGIN ATOM
M  V30 1 C -2.5391 -0.1953 0.0000 0
M  V30 2 C -1.7578 -1.3672 0.0000 0
M  V30 3 C -1.7578 0.9766 0.0000 0
M  V30 4 C -0.3906 -0.7812 0.0000 0
M  V30 5 C -0.3906 0.5859 0.0000 0
M  V30 6 C 0.7812 1.1719 0.0000 0
M  V30 7 C 1.9531 -0.7812 0.0000 0
M  V30 8 N 0.7812 -1.5625 0.0000 0
M  V30 9 N 1.9531 0.3906 0.0000 0
M  V30 10 H -3.5156 -0.1953 0.0000 0
M  V30 11 H -2.1484 2.1484 0.0000 0
M  V30 12 H -1.9531 -2.3438 0.0000 0
M  V30 13 H 0.9766 2.3438 0.0000 0
M  V30 14 H 2.9297 -1.3672 0.0000 0
M  V30 15 H 2.7344 0.9766 0.0000 0
M  V30 END ATOM
M  V30 BEGIN BOND
M  V30 1 1 1 2
M  V30 2 1 1 3
M  V30 3 1 1 10
M  V30 4 1 2 4
M  V30 5 1 2 12
M  V30 6 3 3 5
M  V30 7 1 3 11
M  V30 8 2 4 5
M  V30 9 1 4 8
M  V30 10 1 5 6
M  V30 11 1 6 9
M  V30 12 1 6 13
M  V30 13 1 7 8
M  V30 14 1 7 9
M  V30 15 1 7 14
M  V30 16 1 9 15
M  V30 END BOND
M  V30 END CTAB
M  END
>  <ID>
100
$$$$
Structure_101
Score 	 6.0, smilesprid 	smiles	 smilestrue 	smiles	 similartanimoto 	0	 similardice 	0

   15   16  0  0  0  0            999 V3000
M  V30 BEGIN CTAB
M  V30 COUNTS 15 16 0 0 0
M  V30 BEGIN ATOM
M  V30 1 C -2.5391 -0.1953 0.0000 0
M  V30 2 C -1.7578 -1.3672 0.0000 0
M  V30 3 C -1.7578 0.9766 0.0000 0
M  V30 4 C -0.3906 -0.7812 0.0000 0
M  V30 5 C -0.3906 0.5859 0.0000 0
M  V30 6 C 0.7812 1.1719 0.0000 0
M  V30 7 C 1.9531 -0.7812 0.0000 0
M  V30 8 N 0.7812 -1.5625 0.0000 0
M  V30 9 N 1.9531 0.3906 0.0000 0
M  V30 10 H -3.5156 -0.1953 0.0000 0
M  V30 11 H -2.1484 2.1484 0.0000 0
M  V30 12 H -1.9531 -2.3438 0.0000 0
M  V30 13 H 0.9766 2.3438 0.0000 0
M  V30 14 H 2.9297 -1.3672 0.0000 0
M  V30 15 H 2.7344 0.9766 0.0000 0
M  V30 END ATOM
M  V30 BEGIN BOND
M  V30 1 2 1 2
M  V30 2 1 1 3
M  V30 3 1 1 10
M  V30 4 1 2 4
M  V30 5 1 2 12
M  V30 6 3 3 5
M  V30 7 1 3 11
M  V30 8 2 4 5
M  V30 9 1 4 8
M  V30 10 1 5 6
M  V30 11 1 6 9
M  V30 12 1 6 13
M  V30 13 1 7 8
M  V30 14 1 7 9
M  V30 15 1 7 14
M  V30 16 1 9 15
M  V30 END BOND
M  V30 END CTAB
M  END
>  <ID>
101
$$$$
Structure_102
Score 	 8.0, smilesprid 	smiles	 smilestrue 	smiles	 similartanimoto 	0	 similardice 	0

   15   16  0  0  0  0            999 V3000
M  V30 BEGIN CTAB
M  V30 COUNTS 15 16 0 0 0
M  V30 BEGIN ATOM
M  V30 1 C -2.5391 -0.1953 0.0000 0
M  V30 2 C -1.7578 -1.3672 0.0000 0
M  V30 3 C -1.7578 0.9766 0.0000 0
M  V30 4 C -0.3906 -0.7812 0.0000 0
M  V30 5 C -0.3906 0.5859 0.0000 0
M  V30 6 C 0.7812 1.1719 0.0000 0
M  V30 7 C 1.9531 -0.7812 0.0000 0
M  V30 8 N 0.7812 -1.5625 0.0000 0
M  V30 9 N 1.9531 0.3906 0.0000 0
M  V30 10 H -3.5156 -0.1953 0.0000 0
M  V30 11 H -2.1484 2.1484 0.0000 0
M  V30 12 H -1.9531 -2.3438 0.0000 0
M  V30 13 H 0.9766 2.3438 0.0000 0
M  V30 14 H 2.9297 -1.3672 0.0000 0
M  V30 15 H 2.7344 0.9766 0.0000 0
M  V30 END ATOM
M  V30 BEGIN BOND
M  V30 1 3 1 2
M  V30 2 1 1 3
M  V30 3 1 1 10
M  V30 4 1 2 4
M  V30 5 1 2 12
M  V30 6 3 3 5
M  V30 7 1 3 11
M  V30 8 2 4 5
M  V30 9 1 4 8
M  V30 10 1 5 6
M  V30 11 1 6 9
M  V30 12 1 6 13
M  V30 13 1 7 8
M  V30 14 1 7 9
M  V30 15 1 7 14
M  V30 16 1 9 15
M  V30 END BOND
M  V30 END CTAB
M  END
>  <ID>
102
$$$$
Structure_103
Score 	 8.0, smilesprid 	smiles	 smilestrue 	smiles	 similartanimoto 	0	 similardice 	0

   15   16  0  0  0  0            999 V3000
M  V30 BEGIN CTAB
M  V30 COUNTS 15 16 0 0 0
M  V30 BEGIN ATOM
M  V30 1 C -2.5391 -0.1953 0.0000 0
M  V30 2 C -1.7578 -1.3672 0.0000 0
M  V30 3 C -1.7578 0.9766 0.0000 0
M  V30 4 C -0.3906 -0.7812 0.0000 0
M  V30 5 C -0.3906 0.5859 0.0000 0
M  V30 6 C 0.7812 1.1719 0.0000 0
M  V30 7 C 1.9531 -0.7812 0.0000 0
M  V30 8 N 0.7812 -1.5625 0.0000 0
M  V30 9 N 1.9531 0.3906 0.0000 0
M  V30 10 H -3.5156 -0.1953 0.0000 0
M  V30 11 H -2.1484 2.1484 0.0000 0
M  V30 12 H -1.9531 -2.3438 0.0000 0
M  V30 13 H 0.9766 2.3438 0.0000 0
M  V30 14 H 2.9297 -1.3672 0.0000 0
M  V30 15 H 2.7344 0.9766 0.0000 0
M  V30 END ATOM
M  V30 BEGIN BOND
M  V30 1 1 1 2
M  V30 2 2 1 3
M  V30 3 1 1 10
M  V30 4 1 2 4
M  V30 5 1 2 12
M  V30 6 3 3 5
M  V30 7 1 3 11
M  V30 8 2 4 5
M  V30 9 1 4 8
M  V30 10 1 5 6
M  V30 11 1 6 9
M  V30 12 1 6 13
M  V30 13 1 7 8
M  V30 14 1 7 9
M  V30 15 1 7 14
M  V30 16 1 9 15
M  V30 END BOND
M  V30 END CTAB
M  END
>  <ID>
103
$$$$
Structure_104
Score 	 8.0, smilesprid 	smiles	 smilestrue 	smiles	 similartanimoto 	0	 similardice 	0

   15   16  0  0  0  0            999 V3000
M  V30 BEGIN CTAB
M  V30 COUNTS 15 16 0 0 0
M  V30 BEGIN ATOM
M  V30 1 C -2.5391 -0.1953 0.0000 0
M  V30 2 C -1.7578 -1.3672 0.0000 0
M  V30 3 C -1.7578 0.9766 0.0000 0
M  V30 4 C -0.3906 -0.7812 0.0000 0
M  V30 5 C -0.3906 0.5859 0.0000 0
M  V30 6 C 0.7812 1.1719 0.0000 0
M  V30 7 C 1.9531 -0.7812 0.0000 0
M  V30 8 N 0.7812 -1.5625 0.0000 0
M  V30 9 N 1.9531 0.3906 0.0000 0
M  V30 10 H -3.5156 -0.1953 0.0000 0
M  V30 11 H -2.1484 2.1484 0.0000 0
M  V30 12 H -1.9531 -2.3438 0.0000 0
M  V30 13 H 0.9766 2.3438 0.0000 0
M  V30 14 H 2.9297 -1.3672 0.0000 0
M  V30 15 H 2.7344 0.9766 0.0000 0
M  V30 END ATOM
M  V30 BEGIN BOND
M  V30 1 2 1 2
M  V30 2 2 1 3
M  V30 3 1 1 10
M  V30 4 1 2 4
M  V30 5 1 2 12
M  V30 6 3 3 5
M  V30 7 1 3 11
M  V30 8 2 4 5
M  V30 9 1 4 8
M  V30 10 1 5 6
M  V30 11 1 6 9
M  V30 12 1 6 13
M  V30 13 1 7 8
M  V30 14 1 7 9
M  V30 15 1 7 14
M  V30 16 1 9 15
M  V30 END BOND
M  V30 END CTAB
M  END
>  <ID>
104
$$$$
Structure_105
Score 	 10.0, smilesprid 	smiles	 smilestrue 	smiles	 similartanimoto 	0	 similardice 	0

   15   16  0  0  0  0            999 V3000
M  V30 BEGIN CTAB
M  V30 COUNTS 15 16 0 0 0
M  V30 BEGIN ATOM
M  V30 1 C -2.5391 -0.1953 0.0000 0
M  V30 2 C -1.7578 -1.3672 0.0000 0
M  V30 3 C -1.7578 0.9766 0.0000 0
M  V30 4 C -0.3906 -0.7812 0.0000 0
M  V30 5 C -0.3906 0.5859 0.0000 0
M  V30 6 C 0.7812 1.1719 0.0000 0
M  V30 7 C 1.9531 -0.7812 0.0000 0
M  V30 8 N 0.7812 -1.5625 0.0000 0
M  V30 9 N 1.9531 0.3906 0.0000 0
M  V30 10 H -3.5156 -0.1953 0.0000 0
M  V30 11 H -2.1484 2.1484 0.0000 0
M  V30 12 H -1.9531 -2.3438 0.0000 0
M  V30 13 H 0.9766 2.3438 0.0000 0
M  V30 14 H 2.9297 -1.3672 0.0000 0
M  V30 15 H 2.7344 0.9766 0.0000 0
M  V30 END ATOM
M  V30 BEGIN BOND
M  V30 1 3 1 2
M  V30 2 2 1 3
M  V30 3 1 1 10
M  V30 4 1 2 4
M  V30 5 1 2 12
M  V30 6 3 3 5
M  V30 7 1 3 11
M  V30 8 2 4 5
M  V30 9 1 4 8
M  V30 10 1 5 6
M  V30 11 1 6 9
M  V30 12 1 6 13
M  V30 13 1 7 8
M  V30 14 1 7 9
M  V30 15 1 7 14
M  V30 16 1 9 15
M  V30 END BOND
M  V30 END CTAB
M  END
>  <ID>
105
$$$$
Structure_106
Score 	 10.0, smilesprid 	smiles	 smilestrue 	smiles	 similartanimoto 	0	 similardice 	0

   15   16  0  0  0  0            999 V3000
M  V30 BEGIN CTAB
M  V30 COUNTS 15 16 0 0 0
M  V30 BEGIN ATOM
M  V30 1 C -2.5391 -0.1953 0.0000 0
M  V30 2 C -1.7578 -1.3672 0.0000 0
M  V30 3 C -1.7578 0.9766 0.0000 0
M  V30 4 C -0.3906 -0.7812 0.0000 0
M  V30 5 C -0.3906 0.5859 0.0000 0
M  V30 6 C 0.7812 1.1719 0.0000 0
M  V30 7 C 1.9531 -0.7812 0.0000 0
M  V30 8 N 0.7812 -1.5625 0.0000 0
M  V30 9 N 1.9531 0.3906 0.0000 0
M  V30 10 H -3.5156 -0.1953 0.0000 0
M  V30 11 H -2.1484 2.1484 0.0000 0
M  V30 12 H -1.9531 -2.3438 0.0000 0
M  V30 13 H 0.9766 2.3438 0.0000 0
M  V30 14 H 2.9297 -1.3672 0.0000 0
M  V30 15 H 2.7344 0.9766 0.0000 0
M  V30 END ATOM
M  V30 BEGIN BOND
M  V30 1 1 1 2
M  V30 2 3 1 3
M  V30 3 1 1 10
M  V30 4 1 2 4
M  V30 5 1 2 12
M  V30 6 3 3 5
M  V30 7 1 3 11
M  V30 8 2 4 5
M  V30 9 1 4 8
M  V30 10 1 5 6
M  V30 11 1 6 9
M  V30 12 1 6 13
M  V30 13 1 7 8
M  V30 14 1 7 9
M  V30 15 1 7 14
M  V30 16 1 9 15
M  V30 END BOND
M  V30 END CTAB
M  END
>  <ID>
106
$$$$
Structure_107
Score 	 10.0, smilesprid 	smiles	 smilestrue 	smiles	 similartanimoto 	0	 similardice 	0

   15   16  0  0  0  0            999 V3000
M  V30 BEGIN CTAB
M  V30 COUNTS 15 16 0 0 0
M  V30 BEGIN ATOM
M  V30 1 C -2.5391 -0.1953 0.0000 0
M  V30 2 C -1.7578 -1.3672 0.0000 0
M  V30 3 C -1.7578 0.9766 0.0000 0
M  V30 4 C -0.3906 -0.7812 0.0000 0
M  V30 5 C -0.3906 0.5859 0.0000 0
M  V30 6 C 0.7812 1.1719 0.0000 0
M  V30 7 C 1.9531 -0.7812 0.0000 0
M  V30 8 N 0.7812 -1.5625 0.0000 0
M  V30 9 N 1.9531 0.3906 0.0000 0
M  V30 10 H -3.5156 -0.1953 0.0000 0
M  V30 11 H -2.1484 2.1484 0.0000 0
M  V30 12 H -1.9531 -2.3438 0.0000 0
M  V30 13 H 0.9766 2.3438 0.0000 0
M  V30 14 H 2.9297 -1.3672 0.0000 0
M  V30 15 H 2.7344 0.9766 0.0000 0
M  V30 END ATOM
M  V30 BEGIN BOND
M  V30 1 2 1 2
M  V30 2 3 1 3
M  V30 3 1 1 10
M  V30 4 1 2 4
M  V30 5 1 2 12
M  V30 6 3 3 5
M  V30 7 1 3 11
M  V30 8 2 4 5
M  V30 9 1 4 8
M  V30 10 1 5 6
M  V30 11 1 6 9
M  V30 12 1 6 13
M  V30 13 1 7 8
M  V30 14 1 7 9
M  V30 15 1 7 14
M  V30 16 1 9 15
M  V30 END BOND
M  V30 END CTAB
M  END
>  <ID>
107
$$$$
Structure_108
Score 	 12.0, smilesprid 	smiles	 smilestrue 	smiles	 similartanimoto 	0	 similardice 	0

   15   16  0  0  0  0            999 V3000
M  V30 BEGIN CTAB
M  V30 COUNTS 15 16 0 0 0
M  V30 BEGIN ATOM
M  V30 1 C -2.5391 -0.1953 0.0000 0
M  V30 2 C -1.7578 -1.3672 0.0000 0
M  V30 3 C -1.7578 0.9766 0.0000 0
M  V30 4 C -0.3906 -0.7812 0.0000 0
M  V30 5 C -0.3906 0.5859 0.0000 0
M  V30 6 C 0.7812 1.1719 0.0000 0
M  V30 7 C 1.9531 -0.7812 0.0000 0
M  V30 8 N 0.7812 -1.5625 0.0000 0
M  V30 9 N 1.9531 0.3906 0.0000 0
M  V30 10 H -3.5156 -0.1953 0.0000 0
M  V30 11 H -2.1484 2.1484 0.0000 0
M  V30 12 H -1.9531 -2.3438 0.0000 0
M  V30 13 H 0.9766 2.3438 0.0000 0
M  V30 14 H 2.9297 -1.3672 0.0000 0
M  V30 15 H 2.7344 0.9766 0.0000 0
M  V30 END ATOM
M  V30 BEGIN BOND
M  V30 1 3 1 2
M  V30 2 3 1 3
M  V30 3 1 1 10
M  V30 4 1 2 4
M  V30 5 1 2 12
M  V30 6 3 3 5
M  V30 7 1 3 11
M  V30 8 2 4 5
M  V30 9 1 4 8
M  V30 10 1 5 6
M  V30 11 1 6 9
M  V30 12 1 6 13
M  V30 13 1 7 8
M  V30 14 1 7 9
M  V30 15 1 7 14
M  V30 16 1 9 15
M  V30 END BOND
M  V30 END CTAB
M  END
>  <ID>
108
$$$$
Structure_109
Score 	 6.0, smilesprid 	smiles	 smilestrue 	smiles	 similartanimoto 	0	 similardice 	0

   15   16  0  0  0  0            999 V3000
M  V30 BEGIN CTAB
M  V30 COUNTS 15 16 0 0 0
M  V30 BEGIN ATOM
M  V30 1 C -2.5391 -0.1953 0.0000 0
M  V30 2 C -1.7578 -1.3672 0.0000 0
M  V30 3 C -1.7578 0.9766 0.0000 0
M  V30 4 C -0.3906 -0.7812 0.0000 0
M  V30 5 C -0.3906 0.5859 0.0000 0
M  V30 6 C 0.7812 1.1719 0.0000 0
M  V30 7 C 1.9531 -0.7812 0.0000 0
M  V30 8 N 0.7812 -1.5625 0.0000 0
M  V30 9 N 1.9531 0.3906 0.0000 0
M  V30 10 H -3.5156 -0.1953 0.0000 0
M  V30 11 H -2.1484 2.1484 0.0000 0
M  V30 12 H -1.9531 -2.3438 0.0000 0
M  V30 13 H 0.9766 2.3438 0.0000 0
M  V30 14 H 2.9297 -1.3672 0.0000 0
M  V30 15 H 2.7344 0.9766 0.0000 0
M  V30 END ATOM
M  V30 BEGIN BOND
M  V30 1 1 1 2
M  V30 2 1 1 3
M  V30 3 1 1 10
M  V30 4 2 2 4
M  V30 5 1 2 12
M  V30 6 1 3 5
M  V30 7 1 3 11
M  V30 8 2 4 5
M  V30 9 1 4 8
M  V30 10 1 5 6
M  V30 11 1 6 9
M  V30 12 1 6 13
M  V30 13 1 7 8
M  V30 14 1 7 9
M  V30 15 1 7 14
M  V30 16 1 9 15
M  V30 END BOND
M  V30 END CTAB
M  END
>  <ID>
109
$$$$
Structure_110
Score 	 6.0, smilesprid 	smiles	 smilestrue 	smiles	 similartanimoto 	0	 similardice 	0

   15   16  0  0  0  0            999 V3000
M  V30 BEGIN CTAB
M  V30 COUNTS 15 16 0 0 0
M  V30 BEGIN ATOM
M  V30 1 C -2.5391 -0.1953 0.0000 0
M  V30 2 C -1.7578 -1.3672 0.0000 0
M  V30 3 C -1.7578 0.9766 0.0000 0
M  V30 4 C -0.3906 -0.7812 0.0000 0
M  V30 5 C -0.3906 0.5859 0.0000 0
M  V30 6 C 0.7812 1.1719 0.0000 0
M  V30 7 C 1.9531 -0.7812 0.0000 0
M  V30 8 N 0.7812 -1.5625 0.0000 0
M  V30 9 N 1.9531 0.3906 0.0000 0
M  V30 10 H -3.5156 -0.1953 0.0000 0
M  V30 11 H -2.1484 2.1484 0.0000 0
M  V30 12 H -1.9531 -2.3438 0.0000 0
M  V30 13 H 0.9766 2.3438 0.0000 0
M  V30 14 H 2.9297 -1.3672 0.0000 0
M  V30 15 H 2.7344 0.9766 0.0000 0
M  V30 END ATOM
M  V30 BEGIN BOND
M  V30 1 2 1 2
M  V30 2 1 1 3
M  V30 3 1 1 10
M  V30 4 2 2 4
M  V30 5 1 2 12
M  V30 6 1 3 5
M  V30 7 1 3 11
M  V30 8 2 4 5
M  V30 9 1 4 8
M  V30 10 1 5 6
M  V30 11 1 6 9
M  V30 12 1 6 13
M  V30 13 1 7 8
M  V30 14 1 7 9
M  V30 15 1 7 14
M  V30 16 1 9 15
M  V30 END BOND
M  V30 END CTAB
M  END
>  <ID>
110
$$$$
Structure_111
Score 	 8.0, smilesprid 	smiles	 smilestrue 	smiles	 similartanimoto 	0	 similardice 	0

   15   16  0  0  0  0            999 V3000
M  V30 BEGIN CTAB
M  V30 COUNTS 15 16 0 0 0
M  V30 BEGIN ATOM
M  V30 1 C -2.5391 -0.1953 0.0000 0
M  V30 2 C -1.7578 -1.3672 0.0000 0
M  V30 3 C -1.7578 0.9766 0.0000 0
M  V30 4 C -0.3906 -0.7812 0.0000 0
M  V30 5 C -0.3906 0.5859 0.0000 0
M  V30 6 C 0.7812 1.1719 0.0000 0
M  V30 7 C 1.9531 -0.7812 0.0000 0
M  V30 8 N 0.7812 -1.5625 0.0000 0
M  V30 9 N 1.9531 0.3906 0.0000 0
M  V30 10 H -3.5156 -0.1953 0.0000 0
M  V30 11 H -2.1484 2.1484 0.0000 0
M  V30 12 H -1.9531 -2.3438 0.0000 0
M  V30 13 H 0.9766 2.3438 0.0000 0
M  V30 14 H 2.9297 -1.3672 0.0000 0
M  V30 15 H 2.7344 0.9766 0.0000 0
M  V30 END ATOM
M  V30 BEGIN BOND
M  V30 1 3 1 2
M  V30 2 1 1 3
M  V30 3 1 1 10
M  V30 4 2 2 4
M  V30 5 1 2 12
M  V30 6 1 3 5
M  V30 7 1 3 11
M  V30 8 2 4 5
M  V30 9 1 4 8
M  V30 10 1 5 6
M  V30 11 1 6 9
M  V30 12 1 6 13
M  V30 13 1 7 8
M  V30 14 1 7 9
M  V30 15 1 7 14
M  V30 16 1 9 15
M  V30 END BOND
M  V30 END CTAB
M  END
>  <ID>
111
$$$$
Structure_112
Score 	 4.0, smilesprid 	smiles	 smilestrue 	smiles	 similartanimoto 	0	 similardice 	0

   15   16  0  0  0  0            999 V3000
M  V30 BEGIN CTAB
M  V30 COUNTS 15 16 0 0 0
M  V30 BEGIN ATOM
M  V30 1 C -2.5391 -0.1953 0.0000 0
M  V30 2 C -1.7578 -1.3672 0.0000 0
M  V30 3 C -1.7578 0.9766 0.0000 0
M  V30 4 C -0.3906 -0.7812 0.0000 0
M  V30 5 C -0.3906 0.5859 0.0000 0
M  V30 6 C 0.7812 1.1719 0.0000 0
M  V30 7 C 1.9531 -0.7812 0.0000 0
M  V30 8 N 0.7812 -1.5625 0.0000 0
M  V30 9 N 1.9531 0.3906 0.0000 0
M  V30 10 H -3.5156 -0.1953 0.0000 0
M  V30 11 H -2.1484 2.1484 0.0000 0
M  V30 12 H -1.9531 -2.3438 0.0000 0
M  V30 13 H 0.9766 2.3438 0.0000 0
M  V30 14 H 2.9297 -1.3672 0.0000 0
M  V30 15 H 2.7344 0.9766 0.0000 0
M  V30 END ATOM
M  V30 BEGIN BOND
M  V30 1 1 1 2
M  V30 2 2 1 3
M  V30 3 1 1 10
M  V30 4 2 2 4
M  V30 5 1 2 12
M  V30 6 1 3 5
M  V30 7 1 3 11
M  V30 8 2 4 5
M  V30 9 1 4 8
M  V30 10 1 5 6
M  V30 11 1 6 9
M  V30 12 1 6 13
M  V30 13 1 7 8
M  V30 14 1 7 9
M  V30 15 1 7 14
M  V30 16 1 9 15
M  V30 END BOND
M  V30 END CTAB
M  END
>  <ID>
112
$$$$
Structure_113
Score 	 6.0, smilesprid 	smiles	 smilestrue 	smiles	 similartanimoto 	0	 similardice 	0

   15   16  0  0  0  0            999 V3000
M  V30 BEGIN CTAB
M  V30 COUNTS 15 16 0 0 0
M  V30 BEGIN ATOM
M  V30 1 C -2.5391 -0.1953 0.0000 0
M  V30 2 C -1.7578 -1.3672 0.0000 0
M  V30 3 C -1.7578 0.9766 0.0000 0
M  V30 4 C -0.3906 -0.7812 0.0000 0
M  V30 5 C -0.3906 0.5859 0.0000 0
M  V30 6 C 0.7812 1.1719 0.0000 0
M  V30 7 C 1.9531 -0.7812 0.0000 0
M  V30 8 N 0.7812 -1.5625 0.0000 0
M  V30 9 N 1.9531 0.3906 0.0000 0
M  V30 10 H -3.5156 -0.1953 0.0000 0
M  V30 11 H -2.1484 2.1484 0.0000 0
M  V30 12 H -1.9531 -2.3438 0.0000 0
M  V30 13 H 0.9766 2.3438 0.0000 0
M  V30 14 H 2.9297 -1.3672 0.0000 0
M  V30 15 H 2.7344 0.9766 0.0000 0
M  V30 END ATOM
M  V30 BEGIN BOND
M  V30 1 2 1 2
M  V30 2 2 1 3
M  V30 3 1 1 10
M  V30 4 2 2 4
M  V30 5 1 2 12
M  V30 6 1 3 5
M  V30 7 1 3 11
M  V30 8 2 4 5
M  V30 9 1 4 8
M  V30 10 1 5 6
M  V30 11 1 6 9
M  V30 12 1 6 13
M  V30 13 1 7 8
M  V30 14 1 7 9
M  V30 15 1 7 14
M  V30 16 1 9 15
M  V30 END BOND
M  V30 END CTAB
M  END
>  <ID>
113
$$$$
Structure_114
Score 	 8.0, smilesprid 	smiles	 smilestrue 	smiles	 similartanimoto 	0	 similardice 	0

   15   16  0  0  0  0            999 V3000
M  V30 BEGIN CTAB
M  V30 COUNTS 15 16 0 0 0
M  V30 BEGIN ATOM
M  V30 1 C -2.5391 -0.1953 0.0000 0
M  V30 2 C -1.7578 -1.3672 0.0000 0
M  V30 3 C -1.7578 0.9766 0.0000 0
M  V30 4 C -0.3906 -0.7812 0.0000 0
M  V30 5 C -0.3906 0.5859 0.0000 0
M  V30 6 C 0.7812 1.1719 0.0000 0
M  V30 7 C 1.9531 -0.7812 0.0000 0
M  V30 8 N 0.7812 -1.5625 0.0000 0
M  V30 9 N 1.9531 0.3906 0.0000 0
M  V30 10 H -3.5156 -0.1953 0.0000 0
M  V30 11 H -2.1484 2.1484 0.0000 0
M  V30 12 H -1.9531 -2.3438 0.0000 0
M  V30 13 H 0.9766 2.3438 0.0000 0
M  V30 14 H 2.9297 -1.3672 0.0000 0
M  V30 15 H 2.7344 0.9766 0.0000 0
M  V30 END ATOM
M  V30 BEGIN BOND
M  V30 1 3 1 2
M  V30 2 2 1 3
M  V30 3 1 1 10
M  V30 4 2 2 4
M  V30 5 1 2 12
M  V30 6 1 3 5
M  V30 7 1 3 11
M  V30 8 2 4 5
M  V30 9 1 4 8
M  V30 10 1 5 6
M  V30 11 1 6 9
M  V30 12 1 6 13
M  V30 13 1 7 8
M  V30 14 1 7 9
M  V30 15 1 7 14
M  V30 16 1 9 15
M  V30 END BOND
M  V30 END CTAB
M  END
>  <ID>
114
$$$$
Structure_115
Score 	 6.0, smilesprid 	smiles	 smilestrue 	smiles	 similartanimoto 	0	 similardice 	0

   15   16  0  0  0  0            999 V3000
M  V30 BEGIN CTAB
M  V30 COUNTS 15 16 0 0 0
M  V30 BEGIN ATOM
M  V30 1 C -2.5391 -0.1953 0.0000 0
M  V30 2 C -1.7578 -1.3672 0.0000 0
M  V30 3 C -1.7578 0.9766 0.0000 0
M  V30 4 C -0.3906 -0.7812 0.0000 0
M  V30 5 C -0.3906 0.5859 0.0000 0
M  V30 6 C 0.7812 1.1719 0.0000 0
M  V30 7 C 1.9531 -0.7812 0.0000 0
M  V30 8 N 0.7812 -1.5625 0.0000 0
M  V30 9 N 1.9531 0.3906 0.0000 0
M  V30 10 H -3.5156 -0.1953 0.0000 0
M  V30 11 H -2.1484 2.1484 0.0000 0
M  V30 12 H -1.9531 -2.3438 0.0000 0
M  V30 13 H 0.9766 2.3438 0.0000 0
M  V30 14 H 2.9297 -1.3672 0.0000 0
M  V30 15 H 2.7344 0.9766 0.0000 0
M  V30 END ATOM
M  V30 BEGIN BOND
M  V30 1 1 1 2
M  V30 2 3 1 3
M  V30 3 1 1 10
M  V30 4 2 2 4
M  V30 5 1 2 12
M  V30 6 1 3 5
M  V30 7 1 3 11
M  V30 8 2 4 5
M  V30 9 1 4 8
M  V30 10 1 5 6
M  V30 11 1 6 9
M  V30 12 1 6 13
M  V30 13 1 7 8
M  V30 14 1 7 9
M  V30 15 1 7 14
M  V30 16 1 9 15
M  V30 END BOND
M  V30 END CTAB
M  END
>  <ID>
115
$$$$
Structure_116
Score 	 8.0, smilesprid 	smiles	 smilestrue 	smiles	 similartanimoto 	0	 similardice 	0

   15   16  0  0  0  0            999 V3000
M  V30 BEGIN CTAB
M  V30 COUNTS 15 16 0 0 0
M  V30 BEGIN ATOM
M  V30 1 C -2.5391 -0.1953 0.0000 0
M  V30 2 C -1.7578 -1.3672 0.0000 0
M  V30 3 C -1.7578 0.9766 0.0000 0
M  V30 4 C -0.3906 -0.7812 0.0000 0
M  V30 5 C -0.3906 0.5859 0.0000 0
M  V30 6 C 0.7812 1.1719 0.0000 0
M  V30 7 C 1.9531 -0.7812 0.0000 0
M  V30 8 N 0.7812 -1.5625 0.0000 0
M  V30 9 N 1.9531 0.3906 0.0000 0
M  V30 10 H -3.5156 -0.1953 0.0000 0
M  V30 11 H -2.1484 2.1484 0.0000 0
M  V30 12 H -1.9531 -2.3438 0.0000 0
M  V30 13 H 0.9766 2.3438 0.0000 0
M  V30 14 H 2.9297 -1.3672 0.0000 0
M  V30 15 H 2.7344 0.9766 0.0000 0
M  V30 END ATOM
M  V30 BEGIN BOND
M  V30 1 2 1 2
M  V30 2 3 1 3
M  V30 3 1 1 10
M  V30 4 2 2 4
M  V30 5 1 2 12
M  V30 6 1 3 5
M  V30 7 1 3 11
M  V30 8 2 4 5
M  V30 9 1 4 8
M  V30 10 1 5 6
M  V30 11 1 6 9
M  V30 12 1 6 13
M  V30 13 1 7 8
M  V30 14 1 7 9
M  V30 15 1 7 14
M  V30 16 1 9 15
M  V30 END BOND
M  V30 END CTAB
M  END
>  <ID>
116
$$$$
Structure_117
Score 	 10.0, smilesprid 	smiles	 smilestrue 	smiles	 similartanimoto 	0	 similardice 	0

   15   16  0  0  0  0            999 V3000
M  V30 BEGIN CTAB
M  V30 COUNTS 15 16 0 0 0
M  V30 BEGIN ATOM
M  V30 1 C -2.5391 -0.1953 0.0000 0
M  V30 2 C -1.7578 -1.3672 0.0000 0
M  V30 3 C -1.7578 0.9766 0.0000 0
M  V30 4 C -0.3906 -0.7812 0.0000 0
M  V30 5 C -0.3906 0.5859 0.0000 0
M  V30 6 C 0.7812 1.1719 0.0000 0
M  V30 7 C 1.9531 -0.7812 0.0000 0
M  V30 8 N 0.7812 -1.5625 0.0000 0
M  V30 9 N 1.9531 0.3906 0.0000 0
M  V30 10 H -3.5156 -0.1953 0.0000 0
M  V30 11 H -2.1484 2.1484 0.0000 0
M  V30 12 H -1.9531 -2.3438 0.0000 0
M  V30 13 H 0.9766 2.3438 0.0000 0
M  V30 14 H 2.9297 -1.3672 0.0000 0
M  V30 15 H 2.7344 0.9766 0.0000 0
M  V30 END ATOM
M  V30 BEGIN BOND
M  V30 1 3 1 2
M  V30 2 3 1 3
M  V30 3 1 1 10
M  V30 4 2 2 4
M  V30 5 1 2 12
M  V30 6 1 3 5
M  V30 7 1 3 11
M  V30 8 2 4 5
M  V30 9 1 4 8
M  V30 10 1 5 6
M  V30 11 1 6 9
M  V30 12 1 6 13
M  V30 13 1 7 8
M  V30 14 1 7 9
M  V30 15 1 7 14
M  V30 16 1 9 15
M  V30 END BOND
M  V30 END CTAB
M  END
>  <ID>
117
$$$$
Structure_118
Score 	 6.0, smilesprid 	smiles	 smilestrue 	smiles	 similartanimoto 	0	 similardice 	0

   15   16  0  0  0  0            999 V3000
M  V30 BEGIN CTAB
M  V30 COUNTS 15 16 0 0 0
M  V30 BEGIN ATOM
M  V30 1 C -2.5391 -0.1953 0.0000 0
M  V30 2 C -1.7578 -1.3672 0.0000 0
M  V30 3 C -1.7578 0.9766 0.0000 0
M  V30 4 C -0.3906 -0.7812 0.0000 0
M  V30 5 C -0.3906 0.5859 0.0000 0
M  V30 6 C 0.7812 1.1719 0.0000 0
M  V30 7 C 1.9531 -0.7812 0.0000 0
M  V30 8 N 0.7812 -1.5625 0.0000 0
M  V30 9 N 1.9531 0.3906 0.0000 0
M  V30 10 H -3.5156 -0.1953 0.0000 0
M  V30 11 H -2.1484 2.1484 0.0000 0
M  V30 12 H -1.9531 -2.3438 0.0000 0
M  V30 13 H 0.9766 2.3438 0.0000 0
M  V30 14 H 2.9297 -1.3672 0.0000 0
M  V30 15 H 2.7344 0.9766 0.0000 0
M  V30 END ATOM
M  V30 BEGIN BOND
M  V30 1 1 1 2
M  V30 2 1 1 3
M  V30 3 1 1 10
M  V30 4 2 2 4
M  V30 5 1 2 12
M  V30 6 2 3 5
M  V30 7 1 3 11
M  V30 8 2 4 5
M  V30 9 1 4 8
M  V30 10 1 5 6
M  V30 11 1 6 9
M  V30 12 1 6 13
M  V30 13 1 7 8
M  V30 14 1 7 9
M  V30 15 1 7 14
M  V30 16 1 9 15
M  V30 END BOND
M  V30 END CTAB
M  END
>  <ID>
118
$$$$
Structure_119
Score 	 6.0, smilesprid 	smiles	 smilestrue 	smiles	 similartanimoto 	0	 similardice 	0

   15   16  0  0  0  0            999 V3000
M  V30 BEGIN CTAB
M  V30 COUNTS 15 16 0 0 0
M  V30 BEGIN ATOM
M  V30 1 C -2.5391 -0.1953 0.0000 0
M  V30 2 C -1.7578 -1.3672 0.0000 0
M  V30 3 C -1.7578 0.9766 0.0000 0
M  V30 4 C -0.3906 -0.7812 0.0000 0
M  V30 5 C -0.3906 0.5859 0.0000 0
M  V30 6 C 0.7812 1.1719 0.0000 0
M  V30 7 C 1.9531 -0.7812 0.0000 0
M  V30 8 N 0.7812 -1.5625 0.0000 0
M  V30 9 N 1.9531 0.3906 0.0000 0
M  V30 10 H -3.5156 -0.1953 0.0000 0
M  V30 11 H -2.1484 2.1484 0.0000 0
M  V30 12 H -1.9531 -2.3438 0.0000 0
M  V30 13 H 0.9766 2.3438 0.0000 0
M  V30 14 H 2.9297 -1.3672 0.0000 0
M  V30 15 H 2.7344 0.9766 0.0000 0
M  V30 END ATOM
M  V30 BEGIN BOND
M  V30 1 2 1 2
M  V30 2 1 1 3
M  V30 3 1 1 10
M  V30 4 2 2 4
M  V30 5 1 2 12
M  V30 6 2 3 5
M  V30 7 1 3 11
M  V30 8 2 4 5
M  V30 9 1 4 8
M  V30 10 1 5 6
M  V30 11 1 6 9
M  V30 12 1 6 13
M  V30 13 1 7 8
M  V30 14 1 7 9
M  V30 15 1 7 14
M  V30 16 1 9 15
M  V30 END BOND
M  V30 END CTAB
M  END
>  <ID>
119
$$$$
Structure_120
Score 	 8.0, smilesprid 	smiles	 smilestrue 	smiles	 similartanimoto 	0	 similardice 	0

   15   16  0  0  0  0            999 V3000
M  V30 BEGIN CTAB
M  V30 COUNTS 15 16 0 0 0
M  V30 BEGIN ATOM
M  V30 1 C -2.5391 -0.1953 0.0000 0
M  V30 2 C -1.7578 -1.3672 0.0000 0
M  V30 3 C -1.7578 0.9766 0.0000 0
M  V30 4 C -0.3906 -0.7812 0.0000 0
M  V30 5 C -0.3906 0.5859 0.0000 0
M  V30 6 C 0.7812 1.1719 0.0000 0
M  V30 7 C 1.9531 -0.7812 0.0000 0
M  V30 8 N 0.7812 -1.5625 0.0000 0
M  V30 9 N 1.9531 0.3906 0.0000 0
M  V30 10 H -3.5156 -0.1953 0.0000 0
M  V30 11 H -2.1484 2.1484 0.0000 0
M  V30 12 H -1.9531 -2.3438 0.0000 0
M  V30 13 H 0.9766 2.3438 0.0000 0
M  V30 14 H 2.9297 -1.3672 0.0000 0
M  V30 15 H 2.7344 0.9766 0.0000 0
M  V30 END ATOM
M  V30 BEGIN BOND
M  V30 1 3 1 2
M  V30 2 1 1 3
M  V30 3 1 1 10
M  V30 4 2 2 4
M  V30 5 1 2 12
M  V30 6 2 3 5
M  V30 7 1 3 11
M  V30 8 2 4 5
M  V30 9 1 4 8
M  V30 10 1 5 6
M  V30 11 1 6 9
M  V30 12 1 6 13
M  V30 13 1 7 8
M  V30 14 1 7 9
M  V30 15 1 7 14
M  V30 16 1 9 15
M  V30 END BOND
M  V30 END CTAB
M  END
>  <ID>
120
$$$$
Structure_121
Score 	 6.0, smilesprid 	smiles	 smilestrue 	smiles	 similartanimoto 	0	 similardice 	0

   15   16  0  0  0  0            999 V3000
M  V30 BEGIN CTAB
M  V30 COUNTS 15 16 0 0 0
M  V30 BEGIN ATOM
M  V30 1 C -2.5391 -0.1953 0.0000 0
M  V30 2 C -1.7578 -1.3672 0.0000 0
M  V30 3 C -1.7578 0.9766 0.0000 0
M  V30 4 C -0.3906 -0.7812 0.0000 0
M  V30 5 C -0.3906 0.5859 0.0000 0
M  V30 6 C 0.7812 1.1719 0.0000 0
M  V30 7 C 1.9531 -0.7812 0.0000 0
M  V30 8 N 0.7812 -1.5625 0.0000 0
M  V30 9 N 1.9531 0.3906 0.0000 0
M  V30 10 H -3.5156 -0.1953 0.0000 0
M  V30 11 H -2.1484 2.1484 0.0000 0
M  V30 12 H -1.9531 -2.3438 0.0000 0
M  V30 13 H 0.9766 2.3438 0.0000 0
M  V30 14 H 2.9297 -1.3672 0.0000 0
M  V30 15 H 2.7344 0.9766 0.0000 0
M  V30 END ATOM
M  V30 BEGIN BOND
M  V30 1 1 1 2
M  V30 2 2 1 3
M  V30 3 1 1 10
M  V30 4 2 2 4
M  V30 5 1 2 12
M  V30 6 2 3 5
M  V30 7 1 3 11
M  V30 8 2 4 5
M  V30 9 1 4 8
M  V30 10 1 5 6
M  V30 11 1 6 9
M  V30 12 1 6 13
M  V30 13 1 7 8
M  V30 14 1 7 9
M  V30 15 1 7 14
M  V30 16 1 9 15
M  V30 END BOND
M  V30 END CTAB
M  END
>  <ID>
121
$$$$
Structure_122
Score 	 8.0, smilesprid 	smiles	 smilestrue 	smiles	 similartanimoto 	0	 similardice 	0

   15   16  0  0  0  0            999 V3000
M  V30 BEGIN CTAB
M  V30 COUNTS 15 16 0 0 0
M  V30 BEGIN ATOM
M  V30 1 C -2.5391 -0.1953 0.0000 0
M  V30 2 C -1.7578 -1.3672 0.0000 0
M  V30 3 C -1.7578 0.9766 0.0000 0
M  V30 4 C -0.3906 -0.7812 0.0000 0
M  V30 5 C -0.3906 0.5859 0.0000 0
M  V30 6 C 0.7812 1.1719 0.0000 0
M  V30 7 C 1.9531 -0.7812 0.0000 0
M  V30 8 N 0.7812 -1.5625 0.0000 0
M  V30 9 N 1.9531 0.3906 0.0000 0
M  V30 10 H -3.5156 -0.1953 0.0000 0
M  V30 11 H -2.1484 2.1484 0.0000 0
M  V30 12 H -1.9531 -2.3438 0.0000 0
M  V30 13 H 0.9766 2.3438 0.0000 0
M  V30 14 H 2.9297 -1.3672 0.0000 0
M  V30 15 H 2.7344 0.9766 0.0000 0
M  V30 END ATOM
M  V30 BEGIN BOND
M  V30 1 2 1 2
M  V30 2 2 1 3
M  V30 3 1 1 10
M  V30 4 2 2 4
M  V30 5 1 2 12
M  V30 6 2 3 5
M  V30 7 1 3 11
M  V30 8 2 4 5
M  V30 9 1 4 8
M  V30 10 1 5 6
M  V30 11 1 6 9
M  V30 12 1 6 13
M  V30 13 1 7 8
M  V30 14 1 7 9
M  V30 15 1 7 14
M  V30 16 1 9 15
M  V30 END BOND
M  V30 END CTAB
M  END
>  <ID>
122
$$$$
Structure_123
Score 	 10.0, smilesprid 	smiles	 smilestrue 	smiles	 similartanimoto 	0	 similardice 	0

   15   16  0  0  0  0            999 V3000
M  V30 BEGIN CTAB
M  V30 COUNTS 15 16 0 0 0
M  V30 BEGIN ATOM
M  V30 1 C -2.5391 -0.1953 0.0000 0
M  V30 2 C -1.7578 -1.3672 0.0000 0
M  V30 3 C -1.7578 0.9766 0.0000 0
M  V30 4 C -0.3906 -0.7812 0.0000 0
M  V30 5 C -0.3906 0.5859 0.0000 0
M  V30 6 C 0.7812 1.1719 0.0000 0
M  V30 7 C 1.9531 -0.7812 0.0000 0
M  V30 8 N 0.7812 -1.5625 0.0000 0
M  V30 9 N 1.9531 0.3906 0.0000 0
M  V30 10 H -3.5156 -0.1953 0.0000 0
M  V30 11 H -2.1484 2.1484 0.0000 0
M  V30 12 H -1.9531 -2.3438 0.0000 0
M  V30 13 H 0.9766 2.3438 0.0000 0
M  V30 14 H 2.9297 -1.3672 0.0000 0
M  V30 15 H 2.7344 0.9766 0.0000 0
M  V30 END ATOM
M  V30 BEGIN BOND
M  V30 1 3 1 2
M  V30 2 2 1 3
M  V30 3 1 1 10
M  V30 4 2 2 4
M  V30 5 1 2 12
M  V30 6 2 3 5
M  V30 7 1 3 11
M  V30 8 2 4 5
M  V30 9 1 4 8
M  V30 10 1 5 6
M  V30 11 1 6 9
M  V30 12 1 6 13
M  V30 13 1 7 8
M  V30 14 1 7 9
M  V30 15 1 7 14
M  V30 16 1 9 15
M  V30 END BOND
M  V30 END CTAB
M  END
>  <ID>
123
$$$$
Structure_124
Score 	 8.0, smilesprid 	smiles	 smilestrue 	smiles	 similartanimoto 	0	 similardice 	0

   15   16  0  0  0  0            999 V3000
M  V30 BEGIN CTAB
M  V30 COUNTS 15 16 0 0 0
M  V30 BEGIN ATOM
M  V30 1 C -2.5391 -0.1953 0.0000 0
M  V30 2 C -1.7578 -1.3672 0.0000 0
M  V30 3 C -1.7578 0.9766 0.0000 0
M  V30 4 C -0.3906 -0.7812 0.0000 0
M  V30 5 C -0.3906 0.5859 0.0000 0
M  V30 6 C 0.7812 1.1719 0.0000 0
M  V30 7 C 1.9531 -0.7812 0.0000 0
M  V30 8 N 0.7812 -1.5625 0.0000 0
M  V30 9 N 1.9531 0.3906 0.0000 0
M  V30 10 H -3.5156 -0.1953 0.0000 0
M  V30 11 H -2.1484 2.1484 0.0000 0
M  V30 12 H -1.9531 -2.3438 0.0000 0
M  V30 13 H 0.9766 2.3438 0.0000 0
M  V30 14 H 2.9297 -1.3672 0.0000 0
M  V30 15 H 2.7344 0.9766 0.0000 0
M  V30 END ATOM
M  V30 BEGIN BOND
M  V30 1 1 1 2
M  V30 2 3 1 3
M  V30 3 1 1 10
M  V30 4 2 2 4
M  V30 5 1 2 12
M  V30 6 2 3 5
M  V30 7 1 3 11
M  V30 8 2 4 5
M  V30 9 1 4 8
M  V30 10 1 5 6
M  V30 11 1 6 9
M  V30 12 1 6 13
M  V30 13 1 7 8
M  V30 14 1 7 9
M  V30 15 1 7 14
M  V30 16 1 9 15
M  V30 END BOND
M  V30 END CTAB
M  END
>  <ID>
124
$$$$
Structure_125
Score 	 10.0, smilesprid 	smiles	 smilestrue 	smiles	 similartanimoto 	0	 similardice 	0

   15   16  0  0  0  0            999 V3000
M  V30 BEGIN CTAB
M  V30 COUNTS 15 16 0 0 0
M  V30 BEGIN ATOM
M  V30 1 C -2.5391 -0.1953 0.0000 0
M  V30 2 C -1.7578 -1.3672 0.0000 0
M  V30 3 C -1.7578 0.9766 0.0000 0
M  V30 4 C -0.3906 -0.7812 0.0000 0
M  V30 5 C -0.3906 0.5859 0.0000 0
M  V30 6 C 0.7812 1.1719 0.0000 0
M  V30 7 C 1.9531 -0.7812 0.0000 0
M  V30 8 N 0.7812 -1.5625 0.0000 0
M  V30 9 N 1.9531 0.3906 0.0000 0
M  V30 10 H -3.5156 -0.1953 0.0000 0
M  V30 11 H -2.1484 2.1484 0.0000 0
M  V30 12 H -1.9531 -2.3438 0.0000 0
M  V30 13 H 0.9766 2.3438 0.0000 0
M  V30 14 H 2.9297 -1.3672 0.0000 0
M  V30 15 H 2.7344 0.9766 0.0000 0
M  V30 END ATOM
M  V30 BEGIN BOND
M  V30 1 2 1 2
M  V30 2 3 1 3
M  V30 3 1 1 10
M  V30 4 2 2 4
M  V30 5 1 2 12
M  V30 6 2 3 5
M  V30 7 1 3 11
M  V30 8 2 4 5
M  V30 9 1 4 8
M  V30 10 1 5 6
M  V30 11 1 6 9
M  V30 12 1 6 13
M  V30 13 1 7 8
M  V30 14 1 7 9
M  V30 15 1 7 14
M  V30 16 1 9 15
M  V30 END BOND
M  V30 END CTAB
M  END
>  <ID>
125
$$$$
Structure_126
Score 	 12.0, smilesprid 	smiles	 smilestrue 	smiles	 similartanimoto 	0	 similardice 	0

   15   16  0  0  0  0            999 V3000
M  V30 BEGIN CTAB
M  V30 COUNTS 15 16 0 0 0
M  V30 BEGIN ATOM
M  V30 1 C -2.5391 -0.1953 0.0000 0
M  V30 2 C -1.7578 -1.3672 0.0000 0
M  V30 3 C -1.7578 0.9766 0.0000 0
M  V30 4 C -0.3906 -0.7812 0.0000 0
M  V30 5 C -0.3906 0.5859 0.0000 0
M  V30 6 C 0.7812 1.1719 0.0000 0
M  V30 7 C 1.9531 -0.7812 0.0000 0
M  V30 8 N 0.7812 -1.5625 0.0000 0
M  V30 9 N 1.9531 0.3906 0.0000 0
M  V30 10 H -3.5156 -0.1953 0.0000 0
M  V30 11 H -2.1484 2.1484 0.0000 0
M  V30 12 H -1.9531 -2.3438 0.0000 0
M  V30 13 H 0.9766 2.3438 0.0000 0
M  V30 14 H 2.9297 -1.3672 0.0000 0
M  V30 15 H 2.7344 0.9766 0.0000 0
M  V30 END ATOM
M  V30 BEGIN BOND
M  V30 1 3 1 2
M  V30 2 3 1 3
M  V30 3 1 1 10
M  V30 4 2 2 4
M  V30 5 1 2 12
M  V30 6 2 3 5
M  V30 7 1 3 11
M  V30 8 2 4 5
M  V30 9 1 4 8
M  V30 10 1 5 6
M  V30 11 1 6 9
M  V30 12 1 6 13
M  V30 13 1 7 8
M  V30 14 1 7 9
M  V30 15 1 7 14
M  V30 16 1 9 15
M  V30 END BOND
M  V30 END CTAB
M  END
>  <ID>
126
$$$$
Structure_127
Score 	 8.0, smilesprid 	smiles	 smilestrue 	smiles	 similartanimoto 	0	 similardice 	0

   15   16  0  0  0  0            999 V3000
M  V30 BEGIN CTAB
M  V30 COUNTS 15 16 0 0 0
M  V30 BEGIN ATOM
M  V30 1 C -2.5391 -0.1953 0.0000 0
M  V30 2 C -1.7578 -1.3672 0.0000 0
M  V30 3 C -1.7578 0.9766 0.0000 0
M  V30 4 C -0.3906 -0.7812 0.0000 0
M  V30 5 C -0.3906 0.5859 0.0000 0
M  V30 6 C 0.7812 1.1719 0.0000 0
M  V30 7 C 1.9531 -0.7812 0.0000 0
M  V30 8 N 0.7812 -1.5625 0.0000 0
M  V30 9 N 1.9531 0.3906 0.0000 0
M  V30 10 H -3.5156 -0.1953 0.0000 0
M  V30 11 H -2.1484 2.1484 0.0000 0
M  V30 12 H -1.9531 -2.3438 0.0000 0
M  V30 13 H 0.9766 2.3438 0.0000 0
M  V30 14 H 2.9297 -1.3672 0.0000 0
M  V30 15 H 2.7344 0.9766 0.0000 0
M  V30 END ATOM
M  V30 BEGIN BOND
M  V30 1 1 1 2
M  V30 2 1 1 3
M  V30 3 1 1 10
M  V30 4 2 2 4
M  V30 5 1 2 12
M  V30 6 3 3 5
M  V30 7 1 3 11
M  V30 8 2 4 5
M  V30 9 1 4 8
M  V30 10 1 5 6
M  V30 11 1 6 9
M  V30 12 1 6 13
M  V30 13 1 7 8
M  V30 14 1 7 9
M  V30 15 1 7 14
M  V30 16 1 9 15
M  V30 END BOND
M  V30 END CTAB
M  END
>  <ID>
127
$$$$
Structure_128
Score 	 8.0, smilesprid 	smiles	 smilestrue 	smiles	 similartanimoto 	0	 similardice 	0

   15   16  0  0  0  0            999 V3000
M  V30 BEGIN CTAB
M  V30 COUNTS 15 16 0 0 0
M  V30 BEGIN ATOM
M  V30 1 C -2.5391 -0.1953 0.0000 0
M  V30 2 C -1.7578 -1.3672 0.0000 0
M  V30 3 C -1.7578 0.9766 0.0000 0
M  V30 4 C -0.3906 -0.7812 0.0000 0
M  V30 5 C -0.3906 0.5859 0.0000 0
M  V30 6 C 0.7812 1.1719 0.0000 0
M  V30 7 C 1.9531 -0.7812 0.0000 0
M  V30 8 N 0.7812 -1.5625 0.0000 0
M  V30 9 N 1.9531 0.3906 0.0000 0
M  V30 10 H -3.5156 -0.1953 0.0000 0
M  V30 11 H -2.1484 2.1484 0.0000 0
M  V30 12 H -1.9531 -2.3438 0.0000 0
M  V30 13 H 0.9766 2.3438 0.0000 0
M  V30 14 H 2.9297 -1.3672 0.0000 0
M  V30 15 H 2.7344 0.9766 0.0000 0
M  V30 END ATOM
M  V30 BEGIN BOND
M  V30 1 2 1 2
M  V30 2 1 1 3
M  V30 3 1 1 10
M  V30 4 2 2 4
M  V30 5 1 2 12
M  V30 6 3 3 5
M  V30 7 1 3 11
M  V30 8 2 4 5
M  V30 9 1 4 8
M  V30 10 1 5 6
M  V30 11 1 6 9
M  V30 12 1 6 13
M  V30 13 1 7 8
M  V30 14 1 7 9
M  V30 15 1 7 14
M  V30 16 1 9 15
M  V30 END BOND
M  V30 END CTAB
M  END
>  <ID>
128
$$$$
Structure_129
Score 	 10.0, smilesprid 	smiles	 smilestrue 	smiles	 similartanimoto 	0	 similardice 	0

   15   16  0  0  0  0            999 V3000
M  V30 BEGIN CTAB
M  V30 COUNTS 15 16 0 0 0
M  V30 BEGIN ATOM
M  V30 1 C -2.5391 -0.1953 0.0000 0
M  V30 2 C -1.7578 -1.3672 0.0000 0
M  V30 3 C -1.7578 0.9766 0.0000 0
M  V30 4 C -0.3906 -0.7812 0.0000 0
M  V30 5 C -0.3906 0.5859 0.0000 0
M  V30 6 C 0.7812 1.1719 0.0000 0
M  V30 7 C 1.9531 -0.7812 0.0000 0
M  V30 8 N 0.7812 -1.5625 0.0000 0
M  V30 9 N 1.9531 0.3906 0.0000 0
M  V30 10 H -3.5156 -0.1953 0.0000 0
M  V30 11 H -2.1484 2.1484 0.0000 0
M  V30 12 H -1.9531 -2.3438 0.0000 0
M  V30 13 H 0.9766 2.3438 0.0000 0
M  V30 14 H 2.9297 -1.3672 0.0000 0
M  V30 15 H 2.7344 0.9766 0.0000 0
M  V30 END ATOM
M  V30 BEGIN BOND
M  V30 1 3 1 2
M  V30 2 1 1 3
M  V30 3 1 1 10
M  V30 4 2 2 4
M  V30 5 1 2 12
M  V30 6 3 3 5
M  V30 7 1 3 11
M  V30 8 2 4 5
M  V30 9 1 4 8
M  V30 10 1 5 6
M  V30 11 1 6 9
M  V30 12 1 6 13
M  V30 13 1 7 8
M  V30 14 1 7 9
M  V30 15 1 7 14
M  V30 16 1 9 15
M  V30 END BOND
M  V30 END CTAB
M  END
>  <ID>
129
$$$$
Structure_130
Score 	 8.0, smilesprid 	smiles	 smilestrue 	smiles	 similartanimoto 	0	 similardice 	0

   15   16  0  0  0  0            999 V3000
M  V30 BEGIN CTAB
M  V30 COUNTS 15 16 0 0 0
M  V30 BEGIN ATOM
M  V30 1 C -2.5391 -0.1953 0.0000 0
M  V30 2 C -1.7578 -1.3672 0.0000 0
M  V30 3 C -1.7578 0.9766 0.0000 0
M  V30 4 C -0.3906 -0.7812 0.0000 0
M  V30 5 C -0.3906 0.5859 0.0000 0
M  V30 6 C 0.7812 1.1719 0.0000 0
M  V30 7 C 1.9531 -0.7812 0.0000 0
M  V30 8 N 0.7812 -1.5625 0.0000 0
M  V30 9 N 1.9531 0.3906 0.0000 0
M  V30 10 H -3.5156 -0.1953 0.0000 0
M  V30 11 H -2.1484 2.1484 0.0000 0
M  V30 12 H -1.9531 -2.3438 0.0000 0
M  V30 13 H 0.9766 2.3438 0.0000 0
M  V30 14 H 2.9297 -1.3672 0.0000 0
M  V30 15 H 2.7344 0.9766 0.0000 0
M  V30 END ATOM
M  V30 BEGIN BOND
M  V30 1 1 1 2
M  V30 2 2 1 3
M  V30 3 1 1 10
M  V30 4 2 2 4
M  V30 5 1 2 12
M  V30 6 3 3 5
M  V30 7 1 3 11
M  V30 8 2 4 5
M  V30 9 1 4 8
M  V30 10 1 5 6
M  V30 11 1 6 9
M  V30 12 1 6 13
M  V30 13 1 7 8
M  V30 14 1 7 9
M  V30 15 1 7 14
M  V30 16 1 9 15
M  V30 END BOND
M  V30 END CTAB
M  END
>  <ID>
130
$$$$
Structure_131
Score 	 10.0, smilesprid 	smiles	 smilestrue 	smiles	 similartanimoto 	0	 similardice 	0

   15   16  0  0  0  0            999 V3000
M  V30 BEGIN CTAB
M  V30 COUNTS 15 16 0 0 0
M  V30 BEGIN ATOM
M  V30 1 C -2.5391 -0.1953 0.0000 0
M  V30 2 C -1.7578 -1.3672 0.0000 0
M  V30 3 C -1.7578 0.9766 0.0000 0
M  V30 4 C -0.3906 -0.7812 0.0000 0
M  V30 5 C -0.3906 0.5859 0.0000 0
M  V30 6 C 0.7812 1.1719 0.0000 0
M  V30 7 C 1.9531 -0.7812 0.0000 0
M  V30 8 N 0.7812 -1.5625 0.0000 0
M  V30 9 N 1.9531 0.3906 0.0000 0
M  V30 10 H -3.5156 -0.1953 0.0000 0
M  V30 11 H -2.1484 2.1484 0.0000 0
M  V30 12 H -1.9531 -2.3438 0.0000 0
M  V30 13 H 0.9766 2.3438 0.0000 0
M  V30 14 H 2.9297 -1.3672 0.0000 0
M  V30 15 H 2.7344 0.9766 0.0000 0
M  V30 END ATOM
M  V30 BEGIN BOND
M  V30 1 2 1 2
M  V30 2 2 1 3
M  V30 3 1 1 10
M  V30 4 2 2 4
M  V30 5 1 2 12
M  V30 6 3 3 5
M  V30 7 1 3 11
M  V30 8 2 4 5
M  V30 9 1 4 8
M  V30 10 1 5 6
M  V30 11 1 6 9
M  V30 12 1 6 13
M  V30 13 1 7 8
M  V30 14 1 7 9
M  V30 15 1 7 14
M  V30 16 1 9 15
M  V30 END BOND
M  V30 END CTAB
M  END
>  <ID>
131
$$$$
Structure_132
Score 	 12.0, smilesprid 	smiles	 smilestrue 	smiles	 similartanimoto 	0	 similardice 	0

   15   16  0  0  0  0            999 V3000
M  V30 BEGIN CTAB
M  V30 COUNTS 15 16 0 0 0
M  V30 BEGIN ATOM
M  V30 1 C -2.5391 -0.1953 0.0000 0
M  V30 2 C -1.7578 -1.3672 0.0000 0
M  V30 3 C -1.7578 0.9766 0.0000 0
M  V30 4 C -0.3906 -0.7812 0.0000 0
M  V30 5 C -0.3906 0.5859 0.0000 0
M  V30 6 C 0.7812 1.1719 0.0000 0
M  V30 7 C 1.9531 -0.7812 0.0000 0
M  V30 8 N 0.7812 -1.5625 0.0000 0
M  V30 9 N 1.9531 0.3906 0.0000 0
M  V30 10 H -3.5156 -0.1953 0.0000 0
M  V30 11 H -2.1484 2.1484 0.0000 0
M  V30 12 H -1.9531 -2.3438 0.0000 0
M  V30 13 H 0.9766 2.3438 0.0000 0
M  V30 14 H 2.9297 -1.3672 0.0000 0
M  V30 15 H 2.7344 0.9766 0.0000 0
M  V30 END ATOM
M  V30 BEGIN BOND
M  V30 1 3 1 2
M  V30 2 2 1 3
M  V30 3 1 1 10
M  V30 4 2 2 4
M  V30 5 1 2 12
M  V30 6 3 3 5
M  V30 7 1 3 11
M  V30 8 2 4 5
M  V30 9 1 4 8
M  V30 10 1 5 6
M  V30 11 1 6 9
M  V30 12 1 6 13
M  V30 13 1 7 8
M  V30 14 1 7 9
M  V30 15 1 7 14
M  V30 16 1 9 15
M  V30 END BOND
M  V30 END CTAB
M  END
>  <ID>
132
$$$$
Structure_133
Score 	 10.0, smilesprid 	smiles	 smilestrue 	smiles	 similartanimoto 	0	 similardice 	0

   15   16  0  0  0  0            999 V3000
M  V30 BEGIN CTAB
M  V30 COUNTS 15 16 0 0 0
M  V30 BEGIN ATOM
M  V30 1 C -2.5391 -0.1953 0.0000 0
M  V30 2 C -1.7578 -1.3672 0.0000 0
M  V30 3 C -1.7578 0.9766 0.0000 0
M  V30 4 C -0.3906 -0.7812 0.0000 0
M  V30 5 C -0.3906 0.5859 0.0000 0
M  V30 6 C 0.7812 1.1719 0.0000 0
M  V30 7 C 1.9531 -0.7812 0.0000 0
M  V30 8 N 0.7812 -1.5625 0.0000 0
M  V30 9 N 1.9531 0.3906 0.0000 0
M  V30 10 H -3.5156 -0.1953 0.0000 0
M  V30 11 H -2.1484 2.1484 0.0000 0
M  V30 12 H -1.9531 -2.3438 0.0000 0
M  V30 13 H 0.9766 2.3438 0.0000 0
M  V30 14 H 2.9297 -1.3672 0.0000 0
M  V30 15 H 2.7344 0.9766 0.0000 0
M  V30 END ATOM
M  V30 BEGIN BOND
M  V30 1 1 1 2
M  V30 2 3 1 3
M  V30 3 1 1 10
M  V30 4 2 2 4
M  V30 5 1 2 12
M  V30 6 3 3 5
M  V30 7 1 3 11
M  V30 8 2 4 5
M  V30 9 1 4 8
M  V30 10 1 5 6
M  V30 11 1 6 9
M  V30 12 1 6 13
M  V30 13 1 7 8
M  V30 14 1 7 9
M  V30 15 1 7 14
M  V30 16 1 9 15
M  V30 END BOND
M  V30 END CTAB
M  END
>  <ID>
133
$$$$
Structure_134
Score 	 12.0, smilesprid 	smiles	 smilestrue 	smiles	 similartanimoto 	0	 similardice 	0

   15   16  0  0  0  0            999 V3000
M  V30 BEGIN CTAB
M  V30 COUNTS 15 16 0 0 0
M  V30 BEGIN ATOM
M  V30 1 C -2.5391 -0.1953 0.0000 0
M  V30 2 C -1.7578 -1.3672 0.0000 0
M  V30 3 C -1.7578 0.9766 0.0000 0
M  V30 4 C -0.3906 -0.7812 0.0000 0
M  V30 5 C -0.3906 0.5859 0.0000 0
M  V30 6 C 0.7812 1.1719 0.0000 0
M  V30 7 C 1.9531 -0.7812 0.0000 0
M  V30 8 N 0.7812 -1.5625 0.0000 0
M  V30 9 N 1.9531 0.3906 0.0000 0
M  V30 10 H -3.5156 -0.1953 0.0000 0
M  V30 11 H -2.1484 2.1484 0.0000 0
M  V30 12 H -1.9531 -2.3438 0.0000 0
M  V30 13 H 0.9766 2.3438 0.0000 0
M  V30 14 H 2.9297 -1.3672 0.0000 0
M  V30 15 H 2.7344 0.9766 0.0000 0
M  V30 END ATOM
M  V30 BEGIN BOND
M  V30 1 2 1 2
M  V30 2 3 1 3
M  V30 3 1 1 10
M  V30 4 2 2 4
M  V30 5 1 2 12
M  V30 6 3 3 5
M  V30 7 1 3 11
M  V30 8 2 4 5
M  V30 9 1 4 8
M  V30 10 1 5 6
M  V30 11 1 6 9
M  V30 12 1 6 13
M  V30 13 1 7 8
M  V30 14 1 7 9
M  V30 15 1 7 14
M  V30 16 1 9 15
M  V30 END BOND
M  V30 END CTAB
M  END
>  <ID>
134
$$$$
Structure_135
Score 	 14.0, smilesprid 	smiles	 smilestrue 	smiles	 similartanimoto 	0	 similardice 	0

   15   16  0  0  0  0            999 V3000
M  V30 BEGIN CTAB
M  V30 COUNTS 15 16 0 0 0
M  V30 BEGIN ATOM
M  V30 1 C -2.5391 -0.1953 0.0000 0
M  V30 2 C -1.7578 -1.3672 0.0000 0
M  V30 3 C -1.7578 0.9766 0.0000 0
M  V30 4 C -0.3906 -0.7812 0.0000 0
M  V30 5 C -0.3906 0.5859 0.0000 0
M  V30 6 C 0.7812 1.1719 0.0000 0
M  V30 7 C 1.9531 -0.7812 0.0000 0
M  V30 8 N 0.7812 -1.5625 0.0000 0
M  V30 9 N 1.9531 0.3906 0.0000 0
M  V30 10 H -3.5156 -0.1953 0.0000 0
M  V30 11 H -2.1484 2.1484 0.0000 0
M  V30 12 H -1.9531 -2.3438 0.0000 0
M  V30 13 H 0.9766 2.3438 0.0000 0
M  V30 14 H 2.9297 -1.3672 0.0000 0
M  V30 15 H 2.7344 0.9766 0.0000 0
M  V30 END ATOM
M  V30 BEGIN BOND
M  V30 1 3 1 2
M  V30 2 3 1 3
M  V30 3 1 1 10
M  V30 4 2 2 4
M  V30 5 1 2 12
M  V30 6 3 3 5
M  V30 7 1 3 11
M  V30 8 2 4 5
M  V30 9 1 4 8
M  V30 10 1 5 6
M  V30 11 1 6 9
M  V30 12 1 6 13
M  V30 13 1 7 8
M  V30 14 1 7 9
M  V30 15 1 7 14
M  V30 16 1 9 15
M  V30 END BOND
M  V30 END CTAB
M  END
>  <ID>
135
$$$$
Structure_136
Score 	 8.0, smilesprid 	smiles	 smilestrue 	smiles	 similartanimoto 	0	 similardice 	0

   15   16  0  0  0  0            999 V3000
M  V30 BEGIN CTAB
M  V30 COUNTS 15 16 0 0 0
M  V30 BEGIN ATOM
M  V30 1 C -2.5391 -0.1953 0.0000 0
M  V30 2 C -1.7578 -1.3672 0.0000 0
M  V30 3 C -1.7578 0.9766 0.0000 0
M  V30 4 C -0.3906 -0.7812 0.0000 0
M  V30 5 C -0.3906 0.5859 0.0000 0
M  V30 6 C 0.7812 1.1719 0.0000 0
M  V30 7 C 1.9531 -0.7812 0.0000 0
M  V30 8 N 0.7812 -1.5625 0.0000 0
M  V30 9 N 1.9531 0.3906 0.0000 0
M  V30 10 H -3.5156 -0.1953 0.0000 0
M  V30 11 H -2.1484 2.1484 0.0000 0
M  V30 12 H -1.9531 -2.3438 0.0000 0
M  V30 13 H 0.9766 2.3438 0.0000 0
M  V30 14 H 2.9297 -1.3672 0.0000 0
M  V30 15 H 2.7344 0.9766 0.0000 0
M  V30 END ATOM
M  V30 BEGIN BOND
M  V30 1 1 1 2
M  V30 2 1 1 3
M  V30 3 1 1 10
M  V30 4 3 2 4
M  V30 5 1 2 12
M  V30 6 1 3 5
M  V30 7 1 3 11
M  V30 8 2 4 5
M  V30 9 1 4 8
M  V30 10 1 5 6
M  V30 11 1 6 9
M  V30 12 1 6 13
M  V30 13 1 7 8
M  V30 14 1 7 9
M  V30 15 1 7 14
M  V30 16 1 9 15
M  V30 END BOND
M  V30 END CTAB
M  END
>  <ID>
136
$$$$
Structure_137
Score 	 8.0, smilesprid 	smiles	 smilestrue 	smiles	 similartanimoto 	0	 similardice 	0

   15   16  0  0  0  0            999 V3000
M  V30 BEGIN CTAB
M  V30 COUNTS 15 16 0 0 0
M  V30 BEGIN ATOM
M  V30 1 C -2.5391 -0.1953 0.0000 0
M  V30 2 C -1.7578 -1.3672 0.0000 0
M  V30 3 C -1.7578 0.9766 0.0000 0
M  V30 4 C -0.3906 -0.7812 0.0000 0
M  V30 5 C -0.3906 0.5859 0.0000 0
M  V30 6 C 0.7812 1.1719 0.0000 0
M  V30 7 C 1.9531 -0.7812 0.0000 0
M  V30 8 N 0.7812 -1.5625 0.0000 0
M  V30 9 N 1.9531 0.3906 0.0000 0
M  V30 10 H -3.5156 -0.1953 0.0000 0
M  V30 11 H -2.1484 2.1484 0.0000 0
M  V30 12 H -1.9531 -2.3438 0.0000 0
M  V30 13 H 0.9766 2.3438 0.0000 0
M  V30 14 H 2.9297 -1.3672 0.0000 0
M  V30 15 H 2.7344 0.9766 0.0000 0
M  V30 END ATOM
M  V30 BEGIN BOND
M  V30 1 2 1 2
M  V30 2 1 1 3
M  V30 3 1 1 10
M  V30 4 3 2 4
M  V30 5 1 2 12
M  V30 6 1 3 5
M  V30 7 1 3 11
M  V30 8 2 4 5
M  V30 9 1 4 8
M  V30 10 1 5 6
M  V30 11 1 6 9
M  V30 12 1 6 13
M  V30 13 1 7 8
M  V30 14 1 7 9
M  V30 15 1 7 14
M  V30 16 1 9 15
M  V30 END BOND
M  V30 END CTAB
M  END
>  <ID>
137
$$$$
Structure_138
Score 	 10.0, smilesprid 	smiles	 smilestrue 	smiles	 similartanimoto 	0	 similardice 	0

   15   16  0  0  0  0            999 V3000
M  V30 BEGIN CTAB
M  V30 COUNTS 15 16 0 0 0
M  V30 BEGIN ATOM
M  V30 1 C -2.5391 -0.1953 0.0000 0
M  V30 2 C -1.7578 -1.3672 0.0000 0
M  V30 3 C -1.7578 0.9766 0.0000 0
M  V30 4 C -0.3906 -0.7812 0.0000 0
M  V30 5 C -0.3906 0.5859 0.0000 0
M  V30 6 C 0.7812 1.1719 0.0000 0
M  V30 7 C 1.9531 -0.7812 0.0000 0
M  V30 8 N 0.7812 -1.5625 0.0000 0
M  V30 9 N 1.9531 0.3906 0.0000 0
M  V30 10 H -3.5156 -0.1953 0.0000 0
M  V30 11 H -2.1484 2.1484 0.0000 0
M  V30 12 H -1.9531 -2.3438 0.0000 0
M  V30 13 H 0.9766 2.3438 0.0000 0
M  V30 14 H 2.9297 -1.3672 0.0000 0
M  V30 15 H 2.7344 0.9766 0.0000 0
M  V30 END ATOM
M  V30 BEGIN BOND
M  V30 1 3 1 2
M  V30 2 1 1 3
M  V30 3 1 1 10
M  V30 4 3 2 4
M  V30 5 1 2 12
M  V30 6 1 3 5
M  V30 7 1 3 11
M  V30 8 2 4 5
M  V30 9 1 4 8
M  V30 10 1 5 6
M  V30 11 1 6 9
M  V30 12 1 6 13
M  V30 13 1 7 8
M  V30 14 1 7 9
M  V30 15 1 7 14
M  V30 16 1 9 15
M  V30 END BOND
M  V30 END CTAB
M  END
>  <ID>
138
$$$$
Structure_139
Score 	 6.0, smilesprid 	smiles	 smilestrue 	smiles	 similartanimoto 	0	 similardice 	0

   15   16  0  0  0  0            999 V3000
M  V30 BEGIN CTAB
M  V30 COUNTS 15 16 0 0 0
M  V30 BEGIN ATOM
M  V30 1 C -2.5391 -0.1953 0.0000 0
M  V30 2 C -1.7578 -1.3672 0.0000 0
M  V30 3 C -1.7578 0.9766 0.0000 0
M  V30 4 C -0.3906 -0.7812 0.0000 0
M  V30 5 C -0.3906 0.5859 0.0000 0
M  V30 6 C 0.7812 1.1719 0.0000 0
M  V30 7 C 1.9531 -0.7812 0.0000 0
M  V30 8 N 0.7812 -1.5625 0.0000 0
M  V30 9 N 1.9531 0.3906 0.0000 0
M  V30 10 H -3.5156 -0.1953 0.0000 0
M  V30 11 H -2.1484 2.1484 0.0000 0
M  V30 12 H -1.9531 -2.3438 0.0000 0
M  V30 13 H 0.9766 2.3438 0.0000 0
M  V30 14 H 2.9297 -1.3672 0.0000 0
M  V30 15 H 2.7344 0.9766 0.0000 0
M  V30 END ATOM
M  V30 BEGIN BOND
M  V30 1 1 1 2
M  V30 2 2 1 3
M  V30 3 1 1 10
M  V30 4 3 2 4
M  V30 5 1 2 12
M  V30 6 1 3 5
M  V30 7 1 3 11
M  V30 8 2 4 5
M  V30 9 1 4 8
M  V30 10 1 5 6
M  V30 11 1 6 9
M  V30 12 1 6 13
M  V30 13 1 7 8
M  V30 14 1 7 9
M  V30 15 1 7 14
M  V30 16 1 9 15
M  V30 END BOND
M  V30 END CTAB
M  END
>  <ID>
139
$$$$
Structure_140
Score 	 8.0, smilesprid 	smiles	 smilestrue 	smiles	 similartanimoto 	0	 similardice 	0

   15   16  0  0  0  0            999 V3000
M  V30 BEGIN CTAB
M  V30 COUNTS 15 16 0 0 0
M  V30 BEGIN ATOM
M  V30 1 C -2.5391 -0.1953 0.0000 0
M  V30 2 C -1.7578 -1.3672 0.0000 0
M  V30 3 C -1.7578 0.9766 0.0000 0
M  V30 4 C -0.3906 -0.7812 0.0000 0
M  V30 5 C -0.3906 0.5859 0.0000 0
M  V30 6 C 0.7812 1.1719 0.0000 0
M  V30 7 C 1.9531 -0.7812 0.0000 0
M  V30 8 N 0.7812 -1.5625 0.0000 0
M  V30 9 N 1.9531 0.3906 0.0000 0
M  V30 10 H -3.5156 -0.1953 0.0000 0
M  V30 11 H -2.1484 2.1484 0.0000 0
M  V30 12 H -1.9531 -2.3438 0.0000 0
M  V30 13 H 0.9766 2.3438 0.0000 0
M  V30 14 H 2.9297 -1.3672 0.0000 0
M  V30 15 H 2.7344 0.9766 0.0000 0
M  V30 END ATOM
M  V30 BEGIN BOND
M  V30 1 2 1 2
M  V30 2 2 1 3
M  V30 3 1 1 10
M  V30 4 3 2 4
M  V30 5 1 2 12
M  V30 6 1 3 5
M  V30 7 1 3 11
M  V30 8 2 4 5
M  V30 9 1 4 8
M  V30 10 1 5 6
M  V30 11 1 6 9
M  V30 12 1 6 13
M  V30 13 1 7 8
M  V30 14 1 7 9
M  V30 15 1 7 14
M  V30 16 1 9 15
M  V30 END BOND
M  V30 END CTAB
M  END
>  <ID>
140
$$$$
Structure_141
Score 	 10.0, smilesprid 	smiles	 smilestrue 	smiles	 similartanimoto 	0	 similardice 	0

   15   16  0  0  0  0            999 V3000
M  V30 BEGIN CTAB
M  V30 COUNTS 15 16 0 0 0
M  V30 BEGIN ATOM
M  V30 1 C -2.5391 -0.1953 0.0000 0
M  V30 2 C -1.7578 -1.3672 0.0000 0
M  V30 3 C -1.7578 0.9766 0.0000 0
M  V30 4 C -0.3906 -0.7812 0.0000 0
M  V30 5 C -0.3906 0.5859 0.0000 0
M  V30 6 C 0.7812 1.1719 0.0000 0
M  V30 7 C 1.9531 -0.7812 0.0000 0
M  V30 8 N 0.7812 -1.5625 0.0000 0
M  V30 9 N 1.9531 0.3906 0.0000 0
M  V30 10 H -3.5156 -0.1953 0.0000 0
M  V30 11 H -2.1484 2.1484 0.0000 0
M  V30 12 H -1.9531 -2.3438 0.0000 0
M  V30 13 H 0.9766 2.3438 0.0000 0
M  V30 14 H 2.9297 -1.3672 0.0000 0
M  V30 15 H 2.7344 0.9766 0.0000 0
M  V30 END ATOM
M  V30 BEGIN BOND
M  V30 1 3 1 2
M  V30 2 2 1 3
M  V30 3 1 1 10
M  V30 4 3 2 4
M  V30 5 1 2 12
M  V30 6 1 3 5
M  V30 7 1 3 11
M  V30 8 2 4 5
M  V30 9 1 4 8
M  V30 10 1 5 6
M  V30 11 1 6 9
M  V30 12 1 6 13
M  V30 13 1 7 8
M  V30 14 1 7 9
M  V30 15 1 7 14
M  V30 16 1 9 15
M  V30 END BOND
M  V30 END CTAB
M  END
>  <ID>
141
$$$$
Structure_142
Score 	 8.0, smilesprid 	smiles	 smilestrue 	smiles	 similartanimoto 	0	 similardice 	0

   15   16  0  0  0  0            999 V3000
M  V30 BEGIN CTAB
M  V30 COUNTS 15 16 0 0 0
M  V30 BEGIN ATOM
M  V30 1 C -2.5391 -0.1953 0.0000 0
M  V30 2 C -1.7578 -1.3672 0.0000 0
M  V30 3 C -1.7578 0.9766 0.0000 0
M  V30 4 C -0.3906 -0.7812 0.0000 0
M  V30 5 C -0.3906 0.5859 0.0000 0
M  V30 6 C 0.7812 1.1719 0.0000 0
M  V30 7 C 1.9531 -0.7812 0.0000 0
M  V30 8 N 0.7812 -1.5625 0.0000 0
M  V30 9 N 1.9531 0.3906 0.0000 0
M  V30 10 H -3.5156 -0.1953 0.0000 0
M  V30 11 H -2.1484 2.1484 0.0000 0
M  V30 12 H -1.9531 -2.3438 0.0000 0
M  V30 13 H 0.9766 2.3438 0.0000 0
M  V30 14 H 2.9297 -1.3672 0.0000 0
M  V30 15 H 2.7344 0.9766 0.0000 0
M  V30 END ATOM
M  V30 BEGIN BOND
M  V30 1 1 1 2
M  V30 2 3 1 3
M  V30 3 1 1 10
M  V30 4 3 2 4
M  V30 5 1 2 12
M  V30 6 1 3 5
M  V30 7 1 3 11
M  V30 8 2 4 5
M  V30 9 1 4 8
M  V30 10 1 5 6
M  V30 11 1 6 9
M  V30 12 1 6 13
M  V30 13 1 7 8
M  V30 14 1 7 9
M  V30 15 1 7 14
M  V30 16 1 9 15
M  V30 END BOND
M  V30 END CTAB
M  END
>  <ID>
142
$$$$
Structure_143
Score 	 10.0, smilesprid 	smiles	 smilestrue 	smiles	 similartanimoto 	0	 similardice 	0

   15   16  0  0  0  0            999 V3000
M  V30 BEGIN CTAB
M  V30 COUNTS 15 16 0 0 0
M  V30 BEGIN ATOM
M  V30 1 C -2.5391 -0.1953 0.0000 0
M  V30 2 C -1.7578 -1.3672 0.0000 0
M  V30 3 C -1.7578 0.9766 0.0000 0
M  V30 4 C -0.3906 -0.7812 0.0000 0
M  V30 5 C -0.3906 0.5859 0.0000 0
M  V30 6 C 0.7812 1.1719 0.0000 0
M  V30 7 C 1.9531 -0.7812 0.0000 0
M  V30 8 N 0.7812 -1.5625 0.0000 0
M  V30 9 N 1.9531 0.3906 0.0000 0
M  V30 10 H -3.5156 -0.1953 0.0000 0
M  V30 11 H -2.1484 2.1484 0.0000 0
M  V30 12 H -1.9531 -2.3438 0.0000 0
M  V30 13 H 0.9766 2.3438 0.0000 0
M  V30 14 H 2.9297 -1.3672 0.0000 0
M  V30 15 H 2.7344 0.9766 0.0000 0
M  V30 END ATOM
M  V30 BEGIN BOND
M  V30 1 2 1 2
M  V30 2 3 1 3
M  V30 3 1 1 10
M  V30 4 3 2 4
M  V30 5 1 2 12
M  V30 6 1 3 5
M  V30 7 1 3 11
M  V30 8 2 4 5
M  V30 9 1 4 8
M  V30 10 1 5 6
M  V30 11 1 6 9
M  V30 12 1 6 13
M  V30 13 1 7 8
M  V30 14 1 7 9
M  V30 15 1 7 14
M  V30 16 1 9 15
M  V30 END BOND
M  V30 END CTAB
M  END
>  <ID>
143
$$$$
Structure_144
Score 	 12.0, smilesprid 	smiles	 smilestrue 	smiles	 similartanimoto 	0	 similardice 	0

   15   16  0  0  0  0            999 V3000
M  V30 BEGIN CTAB
M  V30 COUNTS 15 16 0 0 0
M  V30 BEGIN ATOM
M  V30 1 C -2.5391 -0.1953 0.0000 0
M  V30 2 C -1.7578 -1.3672 0.0000 0
M  V30 3 C -1.7578 0.9766 0.0000 0
M  V30 4 C -0.3906 -0.7812 0.0000 0
M  V30 5 C -0.3906 0.5859 0.0000 0
M  V30 6 C 0.7812 1.1719 0.0000 0
M  V30 7 C 1.9531 -0.7812 0.0000 0
M  V30 8 N 0.7812 -1.5625 0.0000 0
M  V30 9 N 1.9531 0.3906 0.0000 0
M  V30 10 H -3.5156 -0.1953 0.0000 0
M  V30 11 H -2.1484 2.1484 0.0000 0
M  V30 12 H -1.9531 -2.3438 0.0000 0
M  V30 13 H 0.9766 2.3438 0.0000 0
M  V30 14 H 2.9297 -1.3672 0.0000 0
M  V30 15 H 2.7344 0.9766 0.0000 0
M  V30 END ATOM
M  V30 BEGIN BOND
M  V30 1 3 1 2
M  V30 2 3 1 3
M  V30 3 1 1 10
M  V30 4 3 2 4
M  V30 5 1 2 12
M  V30 6 1 3 5
M  V30 7 1 3 11
M  V30 8 2 4 5
M  V30 9 1 4 8
M  V30 10 1 5 6
M  V30 11 1 6 9
M  V30 12 1 6 13
M  V30 13 1 7 8
M  V30 14 1 7 9
M  V30 15 1 7 14
M  V30 16 1 9 15
M  V30 END BOND
M  V30 END CTAB
M  END
>  <ID>
144
$$$$
Structure_145
Score 	 8.0, smilesprid 	smiles	 smilestrue 	smiles	 similartanimoto 	0	 similardice 	0

   15   16  0  0  0  0            999 V3000
M  V30 BEGIN CTAB
M  V30 COUNTS 15 16 0 0 0
M  V30 BEGIN ATOM
M  V30 1 C -2.5391 -0.1953 0.0000 0
M  V30 2 C -1.7578 -1.3672 0.0000 0
M  V30 3 C -1.7578 0.9766 0.0000 0
M  V30 4 C -0.3906 -0.7812 0.0000 0
M  V30 5 C -0.3906 0.5859 0.0000 0
M  V30 6 C 0.7812 1.1719 0.0000 0
M  V30 7 C 1.9531 -0.7812 0.0000 0
M  V30 8 N 0.7812 -1.5625 0.0000 0
M  V30 9 N 1.9531 0.3906 0.0000 0
M  V30 10 H -3.5156 -0.1953 0.0000 0
M  V30 11 H -2.1484 2.1484 0.0000 0
M  V30 12 H -1.9531 -2.3438 0.0000 0
M  V30 13 H 0.9766 2.3438 0.0000 0
M  V30 14 H 2.9297 -1.3672 0.0000 0
M  V30 15 H 2.7344 0.9766 0.0000 0
M  V30 END ATOM
M  V30 BEGIN BOND
M  V30 1 1 1 2
M  V30 2 1 1 3
M  V30 3 1 1 10
M  V30 4 3 2 4
M  V30 5 1 2 12
M  V30 6 2 3 5
M  V30 7 1 3 11
M  V30 8 2 4 5
M  V30 9 1 4 8
M  V30 10 1 5 6
M  V30 11 1 6 9
M  V30 12 1 6 13
M  V30 13 1 7 8
M  V30 14 1 7 9
M  V30 15 1 7 14
M  V30 16 1 9 15
M  V30 END BOND
M  V30 END CTAB
M  END
>  <ID>
145
$$$$
Structure_146
Score 	 8.0, smilesprid 	smiles	 smilestrue 	smiles	 similartanimoto 	0	 similardice 	0

   15   16  0  0  0  0            999 V3000
M  V30 BEGIN CTAB
M  V30 COUNTS 15 16 0 0 0
M  V30 BEGIN ATOM
M  V30 1 C -2.5391 -0.1953 0.0000 0
M  V30 2 C -1.7578 -1.3672 0.0000 0
M  V30 3 C -1.7578 0.9766 0.0000 0
M  V30 4 C -0.3906 -0.7812 0.0000 0
M  V30 5 C -0.3906 0.5859 0.0000 0
M  V30 6 C 0.7812 1.1719 0.0000 0
M  V30 7 C 1.9531 -0.7812 0.0000 0
M  V30 8 N 0.7812 -1.5625 0.0000 0
M  V30 9 N 1.9531 0.3906 0.0000 0
M  V30 10 H -3.5156 -0.1953 0.0000 0
M  V30 11 H -2.1484 2.1484 0.0000 0
M  V30 12 H -1.9531 -2.3438 0.0000 0
M  V30 13 H 0.9766 2.3438 0.0000 0
M  V30 14 H 2.9297 -1.3672 0.0000 0
M  V30 15 H 2.7344 0.9766 0.0000 0
M  V30 END ATOM
M  V30 BEGIN BOND
M  V30 1 2 1 2
M  V30 2 1 1 3
M  V30 3 1 1 10
M  V30 4 3 2 4
M  V30 5 1 2 12
M  V30 6 2 3 5
M  V30 7 1 3 11
M  V30 8 2 4 5
M  V30 9 1 4 8
M  V30 10 1 5 6
M  V30 11 1 6 9
M  V30 12 1 6 13
M  V30 13 1 7 8
M  V30 14 1 7 9
M  V30 15 1 7 14
M  V30 16 1 9 15
M  V30 END BOND
M  V30 END CTAB
M  END
>  <ID>
146
$$$$
Structure_147
Score 	 10.0, smilesprid 	smiles	 smilestrue 	smiles	 similartanimoto 	0	 similardice 	0

   15   16  0  0  0  0            999 V3000
M  V30 BEGIN CTAB
M  V30 COUNTS 15 16 0 0 0
M  V30 BEGIN ATOM
M  V30 1 C -2.5391 -0.1953 0.0000 0
M  V30 2 C -1.7578 -1.3672 0.0000 0
M  V30 3 C -1.7578 0.9766 0.0000 0
M  V30 4 C -0.3906 -0.7812 0.0000 0
M  V30 5 C -0.3906 0.5859 0.0000 0
M  V30 6 C 0.7812 1.1719 0.0000 0
M  V30 7 C 1.9531 -0.7812 0.0000 0
M  V30 8 N 0.7812 -1.5625 0.0000 0
M  V30 9 N 1.9531 0.3906 0.0000 0
M  V30 10 H -3.5156 -0.1953 0.0000 0
M  V30 11 H -2.1484 2.1484 0.0000 0
M  V30 12 H -1.9531 -2.3438 0.0000 0
M  V30 13 H 0.9766 2.3438 0.0000 0
M  V30 14 H 2.9297 -1.3672 0.0000 0
M  V30 15 H 2.7344 0.9766 0.0000 0
M  V30 END ATOM
M  V30 BEGIN BOND
M  V30 1 3 1 2
M  V30 2 1 1 3
M  V30 3 1 1 10
M  V30 4 3 2 4
M  V30 5 1 2 12
M  V30 6 2 3 5
M  V30 7 1 3 11
M  V30 8 2 4 5
M  V30 9 1 4 8
M  V30 10 1 5 6
M  V30 11 1 6 9
M  V30 12 1 6 13
M  V30 13 1 7 8
M  V30 14 1 7 9
M  V30 15 1 7 14
M  V30 16 1 9 15
M  V30 END BOND
M  V30 END CTAB
M  END
>  <ID>
147
$$$$
Structure_148
Score 	 8.0, smilesprid 	smiles	 smilestrue 	smiles	 similartanimoto 	0	 similardice 	0

   15   16  0  0  0  0            999 V3000
M  V30 BEGIN CTAB
M  V30 COUNTS 15 16 0 0 0
M  V30 BEGIN ATOM
M  V30 1 C -2.5391 -0.1953 0.0000 0
M  V30 2 C -1.7578 -1.3672 0.0000 0
M  V30 3 C -1.7578 0.9766 0.0000 0
M  V30 4 C -0.3906 -0.7812 0.0000 0
M  V30 5 C -0.3906 0.5859 0.0000 0
M  V30 6 C 0.7812 1.1719 0.0000 0
M  V30 7 C 1.9531 -0.7812 0.0000 0
M  V30 8 N 0.7812 -1.5625 0.0000 0
M  V30 9 N 1.9531 0.3906 0.0000 0
M  V30 10 H -3.5156 -0.1953 0.0000 0
M  V30 11 H -2.1484 2.1484 0.0000 0
M  V30 12 H -1.9531 -2.3438 0.0000 0
M  V30 13 H 0.9766 2.3438 0.0000 0
M  V30 14 H 2.9297 -1.3672 0.0000 0
M  V30 15 H 2.7344 0.9766 0.0000 0
M  V30 END ATOM
M  V30 BEGIN BOND
M  V30 1 1 1 2
M  V30 2 2 1 3
M  V30 3 1 1 10
M  V30 4 3 2 4
M  V30 5 1 2 12
M  V30 6 2 3 5
M  V30 7 1 3 11
M  V30 8 2 4 5
M  V30 9 1 4 8
M  V30 10 1 5 6
M  V30 11 1 6 9
M  V30 12 1 6 13
M  V30 13 1 7 8
M  V30 14 1 7 9
M  V30 15 1 7 14
M  V30 16 1 9 15
M  V30 END BOND
M  V30 END CTAB
M  END
>  <ID>
148
$$$$
Structure_149
Score 	 10.0, smilesprid 	smiles	 smilestrue 	smiles	 similartanimoto 	0	 similardice 	0

   15   16  0  0  0  0            999 V3000
M  V30 BEGIN CTAB
M  V30 COUNTS 15 16 0 0 0
M  V30 BEGIN ATOM
M  V30 1 C -2.5391 -0.1953 0.0000 0
M  V30 2 C -1.7578 -1.3672 0.0000 0
M  V30 3 C -1.7578 0.9766 0.0000 0
M  V30 4 C -0.3906 -0.7812 0.0000 0
M  V30 5 C -0.3906 0.5859 0.0000 0
M  V30 6 C 0.7812 1.1719 0.0000 0
M  V30 7 C 1.9531 -0.7812 0.0000 0
M  V30 8 N 0.7812 -1.5625 0.0000 0
M  V30 9 N 1.9531 0.3906 0.0000 0
M  V30 10 H -3.5156 -0.1953 0.0000 0
M  V30 11 H -2.1484 2.1484 0.0000 0
M  V30 12 H -1.9531 -2.3438 0.0000 0
M  V30 13 H 0.9766 2.3438 0.0000 0
M  V30 14 H 2.9297 -1.3672 0.0000 0
M  V30 15 H 2.7344 0.9766 0.0000 0
M  V30 END ATOM
M  V30 BEGIN BOND
M  V30 1 2 1 2
M  V30 2 2 1 3
M  V30 3 1 1 10
M  V30 4 3 2 4
M  V30 5 1 2 12
M  V30 6 2 3 5
M  V30 7 1 3 11
M  V30 8 2 4 5
M  V30 9 1 4 8
M  V30 10 1 5 6
M  V30 11 1 6 9
M  V30 12 1 6 13
M  V30 13 1 7 8
M  V30 14 1 7 9
M  V30 15 1 7 14
M  V30 16 1 9 15
M  V30 END BOND
M  V30 END CTAB
M  END
>  <ID>
149
$$$$
Structure_150
Score 	 12.0, smilesprid 	smiles	 smilestrue 	smiles	 similartanimoto 	0	 similardice 	0

   15   16  0  0  0  0            999 V3000
M  V30 BEGIN CTAB
M  V30 COUNTS 15 16 0 0 0
M  V30 BEGIN ATOM
M  V30 1 C -2.5391 -0.1953 0.0000 0
M  V30 2 C -1.7578 -1.3672 0.0000 0
M  V30 3 C -1.7578 0.9766 0.0000 0
M  V30 4 C -0.3906 -0.7812 0.0000 0
M  V30 5 C -0.3906 0.5859 0.0000 0
M  V30 6 C 0.7812 1.1719 0.0000 0
M  V30 7 C 1.9531 -0.7812 0.0000 0
M  V30 8 N 0.7812 -1.5625 0.0000 0
M  V30 9 N 1.9531 0.3906 0.0000 0
M  V30 10 H -3.5156 -0.1953 0.0000 0
M  V30 11 H -2.1484 2.1484 0.0000 0
M  V30 12 H -1.9531 -2.3438 0.0000 0
M  V30 13 H 0.9766 2.3438 0.0000 0
M  V30 14 H 2.9297 -1.3672 0.0000 0
M  V30 15 H 2.7344 0.9766 0.0000 0
M  V30 END ATOM
M  V30 BEGIN BOND
M  V30 1 3 1 2
M  V30 2 2 1 3
M  V30 3 1 1 10
M  V30 4 3 2 4
M  V30 5 1 2 12
M  V30 6 2 3 5
M  V30 7 1 3 11
M  V30 8 2 4 5
M  V30 9 1 4 8
M  V30 10 1 5 6
M  V30 11 1 6 9
M  V30 12 1 6 13
M  V30 13 1 7 8
M  V30 14 1 7 9
M  V30 15 1 7 14
M  V30 16 1 9 15
M  V30 END BOND
M  V30 END CTAB
M  END
>  <ID>
150
$$$$
Structure_151
Score 	 10.0, smilesprid 	smiles	 smilestrue 	smiles	 similartanimoto 	0	 similardice 	0

   15   16  0  0  0  0            999 V3000
M  V30 BEGIN CTAB
M  V30 COUNTS 15 16 0 0 0
M  V30 BEGIN ATOM
M  V30 1 C -2.5391 -0.1953 0.0000 0
M  V30 2 C -1.7578 -1.3672 0.0000 0
M  V30 3 C -1.7578 0.9766 0.0000 0
M  V30 4 C -0.3906 -0.7812 0.0000 0
M  V30 5 C -0.3906 0.5859 0.0000 0
M  V30 6 C 0.7812 1.1719 0.0000 0
M  V30 7 C 1.9531 -0.7812 0.0000 0
M  V30 8 N 0.7812 -1.5625 0.0000 0
M  V30 9 N 1.9531 0.3906 0.0000 0
M  V30 10 H -3.5156 -0.1953 0.0000 0
M  V30 11 H -2.1484 2.1484 0.0000 0
M  V30 12 H -1.9531 -2.3438 0.0000 0
M  V30 13 H 0.9766 2.3438 0.0000 0
M  V30 14 H 2.9297 -1.3672 0.0000 0
M  V30 15 H 2.7344 0.9766 0.0000 0
M  V30 END ATOM
M  V30 BEGIN BOND
M  V30 1 1 1 2
M  V30 2 3 1 3
M  V30 3 1 1 10
M  V30 4 3 2 4
M  V30 5 1 2 12
M  V30 6 2 3 5
M  V30 7 1 3 11
M  V30 8 2 4 5
M  V30 9 1 4 8
M  V30 10 1 5 6
M  V30 11 1 6 9
M  V30 12 1 6 13
M  V30 13 1 7 8
M  V30 14 1 7 9
M  V30 15 1 7 14
M  V30 16 1 9 15
M  V30 END BOND
M  V30 END CTAB
M  END
>  <ID>
151
$$$$
Structure_152
Score 	 12.0, smilesprid 	smiles	 smilestrue 	smiles	 similartanimoto 	0	 similardice 	0

   15   16  0  0  0  0            999 V3000
M  V30 BEGIN CTAB
M  V30 COUNTS 15 16 0 0 0
M  V30 BEGIN ATOM
M  V30 1 C -2.5391 -0.1953 0.0000 0
M  V30 2 C -1.7578 -1.3672 0.0000 0
M  V30 3 C -1.7578 0.9766 0.0000 0
M  V30 4 C -0.3906 -0.7812 0.0000 0
M  V30 5 C -0.3906 0.5859 0.0000 0
M  V30 6 C 0.7812 1.1719 0.0000 0
M  V30 7 C 1.9531 -0.7812 0.0000 0
M  V30 8 N 0.7812 -1.5625 0.0000 0
M  V30 9 N 1.9531 0.3906 0.0000 0
M  V30 10 H -3.5156 -0.1953 0.0000 0
M  V30 11 H -2.1484 2.1484 0.0000 0
M  V30 12 H -1.9531 -2.3438 0.0000 0
M  V30 13 H 0.9766 2.3438 0.0000 0
M  V30 14 H 2.9297 -1.3672 0.0000 0
M  V30 15 H 2.7344 0.9766 0.0000 0
M  V30 END ATOM
M  V30 BEGIN BOND
M  V30 1 2 1 2
M  V30 2 3 1 3
M  V30 3 1 1 10
M  V30 4 3 2 4
M  V30 5 1 2 12
M  V30 6 2 3 5
M  V30 7 1 3 11
M  V30 8 2 4 5
M  V30 9 1 4 8
M  V30 10 1 5 6
M  V30 11 1 6 9
M  V30 12 1 6 13
M  V30 13 1 7 8
M  V30 14 1 7 9
M  V30 15 1 7 14
M  V30 16 1 9 15
M  V30 END BOND
M  V30 END CTAB
M  END
>  <ID>
152
$$$$
Structure_153
Score 	 14.0, smilesprid 	smiles	 smilestrue 	smiles	 similartanimoto 	0	 similardice 	0

   15   16  0  0  0  0            999 V3000
M  V30 BEGIN CTAB
M  V30 COUNTS 15 16 0 0 0
M  V30 BEGIN ATOM
M  V30 1 C -2.5391 -0.1953 0.0000 0
M  V30 2 C -1.7578 -1.3672 0.0000 0
M  V30 3 C -1.7578 0.9766 0.0000 0
M  V30 4 C -0.3906 -0.7812 0.0000 0
M  V30 5 C -0.3906 0.5859 0.0000 0
M  V30 6 C 0.7812 1.1719 0.0000 0
M  V30 7 C 1.9531 -0.7812 0.0000 0
M  V30 8 N 0.7812 -1.5625 0.0000 0
M  V30 9 N 1.9531 0.3906 0.0000 0
M  V30 10 H -3.5156 -0.1953 0.0000 0
M  V30 11 H -2.1484 2.1484 0.0000 0
M  V30 12 H -1.9531 -2.3438 0.0000 0
M  V30 13 H 0.9766 2.3438 0.0000 0
M  V30 14 H 2.9297 -1.3672 0.0000 0
M  V30 15 H 2.7344 0.9766 0.0000 0
M  V30 END ATOM
M  V30 BEGIN BOND
M  V30 1 3 1 2
M  V30 2 3 1 3
M  V30 3 1 1 10
M  V30 4 3 2 4
M  V30 5 1 2 12
M  V30 6 2 3 5
M  V30 7 1 3 11
M  V30 8 2 4 5
M  V30 9 1 4 8
M  V30 10 1 5 6
M  V30 11 1 6 9
M  V30 12 1 6 13
M  V30 13 1 7 8
M  V30 14 1 7 9
M  V30 15 1 7 14
M  V30 16 1 9 15
M  V30 END BOND
M  V30 END CTAB
M  END
>  <ID>
153
$$$$
Structure_154
Score 	 10.0, smilesprid 	smiles	 smilestrue 	smiles	 similartanimoto 	0	 similardice 	0

   15   16  0  0  0  0            999 V3000
M  V30 BEGIN CTAB
M  V30 COUNTS 15 16 0 0 0
M  V30 BEGIN ATOM
M  V30 1 C -2.5391 -0.1953 0.0000 0
M  V30 2 C -1.7578 -1.3672 0.0000 0
M  V30 3 C -1.7578 0.9766 0.0000 0
M  V30 4 C -0.3906 -0.7812 0.0000 0
M  V30 5 C -0.3906 0.5859 0.0000 0
M  V30 6 C 0.7812 1.1719 0.0000 0
M  V30 7 C 1.9531 -0.7812 0.0000 0
M  V30 8 N 0.7812 -1.5625 0.0000 0
M  V30 9 N 1.9531 0.3906 0.0000 0
M  V30 10 H -3.5156 -0.1953 0.0000 0
M  V30 11 H -2.1484 2.1484 0.0000 0
M  V30 12 H -1.9531 -2.3438 0.0000 0
M  V30 13 H 0.9766 2.3438 0.0000 0
M  V30 14 H 2.9297 -1.3672 0.0000 0
M  V30 15 H 2.7344 0.9766 0.0000 0
M  V30 END ATOM
M  V30 BEGIN BOND
M  V30 1 1 1 2
M  V30 2 1 1 3
M  V30 3 1 1 10
M  V30 4 3 2 4
M  V30 5 1 2 12
M  V30 6 3 3 5
M  V30 7 1 3 11
M  V30 8 2 4 5
M  V30 9 1 4 8
M  V30 10 1 5 6
M  V30 11 1 6 9
M  V30 12 1 6 13
M  V30 13 1 7 8
M  V30 14 1 7 9
M  V30 15 1 7 14
M  V30 16 1 9 15
M  V30 END BOND
M  V30 END CTAB
M  END
>  <ID>
154
$$$$
Structure_155
Score 	 10.0, smilesprid 	smiles	 smilestrue 	smiles	 similartanimoto 	0	 similardice 	0

   15   16  0  0  0  0            999 V3000
M  V30 BEGIN CTAB
M  V30 COUNTS 15 16 0 0 0
M  V30 BEGIN ATOM
M  V30 1 C -2.5391 -0.1953 0.0000 0
M  V30 2 C -1.7578 -1.3672 0.0000 0
M  V30 3 C -1.7578 0.9766 0.0000 0
M  V30 4 C -0.3906 -0.7812 0.0000 0
M  V30 5 C -0.3906 0.5859 0.0000 0
M  V30 6 C 0.7812 1.1719 0.0000 0
M  V30 7 C 1.9531 -0.7812 0.0000 0
M  V30 8 N 0.7812 -1.5625 0.0000 0
M  V30 9 N 1.9531 0.3906 0.0000 0
M  V30 10 H -3.5156 -0.1953 0.0000 0
M  V30 11 H -2.1484 2.1484 0.0000 0
M  V30 12 H -1.9531 -2.3438 0.0000 0
M  V30 13 H 0.9766 2.3438 0.0000 0
M  V30 14 H 2.9297 -1.3672 0.0000 0
M  V30 15 H 2.7344 0.9766 0.0000 0
M  V30 END ATOM
M  V30 BEGIN BOND
M  V30 1 2 1 2
M  V30 2 1 1 3
M  V30 3 1 1 10
M  V30 4 3 2 4
M  V30 5 1 2 12
M  V30 6 3 3 5
M  V30 7 1 3 11
M  V30 8 2 4 5
M  V30 9 1 4 8
M  V30 10 1 5 6
M  V30 11 1 6 9
M  V30 12 1 6 13
M  V30 13 1 7 8
M  V30 14 1 7 9
M  V30 15 1 7 14
M  V30 16 1 9 15
M  V30 END BOND
M  V30 END CTAB
M  END
>  <ID>
155
$$$$
Structure_156
Score 	 12.0, smilesprid 	smiles	 smilestrue 	smiles	 similartanimoto 	0	 similardice 	0

   15   16  0  0  0  0            999 V3000
M  V30 BEGIN CTAB
M  V30 COUNTS 15 16 0 0 0
M  V30 BEGIN ATOM
M  V30 1 C -2.5391 -0.1953 0.0000 0
M  V30 2 C -1.7578 -1.3672 0.0000 0
M  V30 3 C -1.7578 0.9766 0.0000 0
M  V30 4 C -0.3906 -0.7812 0.0000 0
M  V30 5 C -0.3906 0.5859 0.0000 0
M  V30 6 C 0.7812 1.1719 0.0000 0
M  V30 7 C 1.9531 -0.7812 0.0000 0
M  V30 8 N 0.7812 -1.5625 0.0000 0
M  V30 9 N 1.9531 0.3906 0.0000 0
M  V30 10 H -3.5156 -0.1953 0.0000 0
M  V30 11 H -2.1484 2.1484 0.0000 0
M  V30 12 H -1.9531 -2.3438 0.0000 0
M  V30 13 H 0.9766 2.3438 0.0000 0
M  V30 14 H 2.9297 -1.3672 0.0000 0
M  V30 15 H 2.7344 0.9766 0.0000 0
M  V30 END ATOM
M  V30 BEGIN BOND
M  V30 1 3 1 2
M  V30 2 1 1 3
M  V30 3 1 1 10
M  V30 4 3 2 4
M  V30 5 1 2 12
M  V30 6 3 3 5
M  V30 7 1 3 11
M  V30 8 2 4 5
M  V30 9 1 4 8
M  V30 10 1 5 6
M  V30 11 1 6 9
M  V30 12 1 6 13
M  V30 13 1 7 8
M  V30 14 1 7 9
M  V30 15 1 7 14
M  V30 16 1 9 15
M  V30 END BOND
M  V30 END CTAB
M  END
>  <ID>
156
$$$$
Structure_157
Score 	 10.0, smilesprid 	smiles	 smilestrue 	smiles	 similartanimoto 	0	 similardice 	0

   15   16  0  0  0  0            999 V3000
M  V30 BEGIN CTAB
M  V30 COUNTS 15 16 0 0 0
M  V30 BEGIN ATOM
M  V30 1 C -2.5391 -0.1953 0.0000 0
M  V30 2 C -1.7578 -1.3672 0.0000 0
M  V30 3 C -1.7578 0.9766 0.0000 0
M  V30 4 C -0.3906 -0.7812 0.0000 0
M  V30 5 C -0.3906 0.5859 0.0000 0
M  V30 6 C 0.7812 1.1719 0.0000 0
M  V30 7 C 1.9531 -0.7812 0.0000 0
M  V30 8 N 0.7812 -1.5625 0.0000 0
M  V30 9 N 1.9531 0.3906 0.0000 0
M  V30 10 H -3.5156 -0.1953 0.0000 0
M  V30 11 H -2.1484 2.1484 0.0000 0
M  V30 12 H -1.9531 -2.3438 0.0000 0
M  V30 13 H 0.9766 2.3438 0.0000 0
M  V30 14 H 2.9297 -1.3672 0.0000 0
M  V30 15 H 2.7344 0.9766 0.0000 0
M  V30 END ATOM
M  V30 BEGIN BOND
M  V30 1 1 1 2
M  V30 2 2 1 3
M  V30 3 1 1 10
M  V30 4 3 2 4
M  V30 5 1 2 12
M  V30 6 3 3 5
M  V30 7 1 3 11
M  V30 8 2 4 5
M  V30 9 1 4 8
M  V30 10 1 5 6
M  V30 11 1 6 9
M  V30 12 1 6 13
M  V30 13 1 7 8
M  V30 14 1 7 9
M  V30 15 1 7 14
M  V30 16 1 9 15
M  V30 END BOND
M  V30 END CTAB
M  END
>  <ID>
157
$$$$
Structure_158
Score 	 12.0, smilesprid 	smiles	 smilestrue 	smiles	 similartanimoto 	0	 similardice 	0

   15   16  0  0  0  0            999 V3000
M  V30 BEGIN CTAB
M  V30 COUNTS 15 16 0 0 0
M  V30 BEGIN ATOM
M  V30 1 C -2.5391 -0.1953 0.0000 0
M  V30 2 C -1.7578 -1.3672 0.0000 0
M  V30 3 C -1.7578 0.9766 0.0000 0
M  V30 4 C -0.3906 -0.7812 0.0000 0
M  V30 5 C -0.3906 0.5859 0.0000 0
M  V30 6 C 0.7812 1.1719 0.0000 0
M  V30 7 C 1.9531 -0.7812 0.0000 0
M  V30 8 N 0.7812 -1.5625 0.0000 0
M  V30 9 N 1.9531 0.3906 0.0000 0
M  V30 10 H -3.5156 -0.1953 0.0000 0
M  V30 11 H -2.1484 2.1484 0.0000 0
M  V30 12 H -1.9531 -2.3438 0.0000 0
M  V30 13 H 0.9766 2.3438 0.0000 0
M  V30 14 H 2.9297 -1.3672 0.0000 0
M  V30 15 H 2.7344 0.9766 0.0000 0
M  V30 END ATOM
M  V30 BEGIN BOND
M  V30 1 2 1 2
M  V30 2 2 1 3
M  V30 3 1 1 10
M  V30 4 3 2 4
M  V30 5 1 2 12
M  V30 6 3 3 5
M  V30 7 1 3 11
M  V30 8 2 4 5
M  V30 9 1 4 8
M  V30 10 1 5 6
M  V30 11 1 6 9
M  V30 12 1 6 13
M  V30 13 1 7 8
M  V30 14 1 7 9
M  V30 15 1 7 14
M  V30 16 1 9 15
M  V30 END BOND
M  V30 END CTAB
M  END
>  <ID>
158
$$$$
Structure_159
Score 	 14.0, smilesprid 	smiles	 smilestrue 	smiles	 similartanimoto 	0	 similardice 	0

   15   16  0  0  0  0            999 V3000
M  V30 BEGIN CTAB
M  V30 COUNTS 15 16 0 0 0
M  V30 BEGIN ATOM
M  V30 1 C -2.5391 -0.1953 0.0000 0
M  V30 2 C -1.7578 -1.3672 0.0000 0
M  V30 3 C -1.7578 0.9766 0.0000 0
M  V30 4 C -0.3906 -0.7812 0.0000 0
M  V30 5 C -0.3906 0.5859 0.0000 0
M  V30 6 C 0.7812 1.1719 0.0000 0
M  V30 7 C 1.9531 -0.7812 0.0000 0
M  V30 8 N 0.7812 -1.5625 0.0000 0
M  V30 9 N 1.9531 0.3906 0.0000 0
M  V30 10 H -3.5156 -0.1953 0.0000 0
M  V30 11 H -2.1484 2.1484 0.0000 0
M  V30 12 H -1.9531 -2.3438 0.0000 0
M  V30 13 H 0.9766 2.3438 0.0000 0
M  V30 14 H 2.9297 -1.3672 0.0000 0
M  V30 15 H 2.7344 0.9766 0.0000 0
M  V30 END ATOM
M  V30 BEGIN BOND
M  V30 1 3 1 2
M  V30 2 2 1 3
M  V30 3 1 1 10
M  V30 4 3 2 4
M  V30 5 1 2 12
M  V30 6 3 3 5
M  V30 7 1 3 11
M  V30 8 2 4 5
M  V30 9 1 4 8
M  V30 10 1 5 6
M  V30 11 1 6 9
M  V30 12 1 6 13
M  V30 13 1 7 8
M  V30 14 1 7 9
M  V30 15 1 7 14
M  V30 16 1 9 15
M  V30 END BOND
M  V30 END CTAB
M  END
>  <ID>
159
$$$$
Structure_160
Score 	 12.0, smilesprid 	smiles	 smilestrue 	smiles	 similartanimoto 	0	 similardice 	0

   15   16  0  0  0  0            999 V3000
M  V30 BEGIN CTAB
M  V30 COUNTS 15 16 0 0 0
M  V30 BEGIN ATOM
M  V30 1 C -2.5391 -0.1953 0.0000 0
M  V30 2 C -1.7578 -1.3672 0.0000 0
M  V30 3 C -1.7578 0.9766 0.0000 0
M  V30 4 C -0.3906 -0.7812 0.0000 0
M  V30 5 C -0.3906 0.5859 0.0000 0
M  V30 6 C 0.7812 1.1719 0.0000 0
M  V30 7 C 1.9531 -0.7812 0.0000 0
M  V30 8 N 0.7812 -1.5625 0.0000 0
M  V30 9 N 1.9531 0.3906 0.0000 0
M  V30 10 H -3.5156 -0.1953 0.0000 0
M  V30 11 H -2.1484 2.1484 0.0000 0
M  V30 12 H -1.9531 -2.3438 0.0000 0
M  V30 13 H 0.9766 2.3438 0.0000 0
M  V30 14 H 2.9297 -1.3672 0.0000 0
M  V30 15 H 2.7344 0.9766 0.0000 0
M  V30 END ATOM
M  V30 BEGIN BOND
M  V30 1 1 1 2
M  V30 2 3 1 3
M  V30 3 1 1 10
M  V30 4 3 2 4
M  V30 5 1 2 12
M  V30 6 3 3 5
M  V30 7 1 3 11
M  V30 8 2 4 5
M  V30 9 1 4 8
M  V30 10 1 5 6
M  V30 11 1 6 9
M  V30 12 1 6 13
M  V30 13 1 7 8
M  V30 14 1 7 9
M  V30 15 1 7 14
M  V30 16 1 9 15
M  V30 END BOND
M  V30 END CTAB
M  END
>  <ID>
160
$$$$
Structure_161
Score 	 14.0, smilesprid 	smiles	 smilestrue 	smiles	 similartanimoto 	0	 similardice 	0

   15   16  0  0  0  0            999 V3000
M  V30 BEGIN CTAB
M  V30 COUNTS 15 16 0 0 0
M  V30 BEGIN ATOM
M  V30 1 C -2.5391 -0.1953 0.0000 0
M  V30 2 C -1.7578 -1.3672 0.0000 0
M  V30 3 C -1.7578 0.9766 0.0000 0
M  V30 4 C -0.3906 -0.7812 0.0000 0
M  V30 5 C -0.3906 0.5859 0.0000 0
M  V30 6 C 0.7812 1.1719 0.0000 0
M  V30 7 C 1.9531 -0.7812 0.0000 0
M  V30 8 N 0.7812 -1.5625 0.0000 0
M  V30 9 N 1.9531 0.3906 0.0000 0
M  V30 10 H -3.5156 -0.1953 0.0000 0
M  V30 11 H -2.1484 2.1484 0.0000 0
M  V30 12 H -1.9531 -2.3438 0.0000 0
M  V30 13 H 0.9766 2.3438 0.0000 0
M  V30 14 H 2.9297 -1.3672 0.0000 0
M  V30 15 H 2.7344 0.9766 0.0000 0
M  V30 END ATOM
M  V30 BEGIN BOND
M  V30 1 2 1 2
M  V30 2 3 1 3
M  V30 3 1 1 10
M  V30 4 3 2 4
M  V30 5 1 2 12
M  V30 6 3 3 5
M  V30 7 1 3 11
M  V30 8 2 4 5
M  V30 9 1 4 8
M  V30 10 1 5 6
M  V30 11 1 6 9
M  V30 12 1 6 13
M  V30 13 1 7 8
M  V30 14 1 7 9
M  V30 15 1 7 14
M  V30 16 1 9 15
M  V30 END BOND
M  V30 END CTAB
M  END
>  <ID>
161
$$$$
Structure_162
Score 	 16.0, smilesprid 	smiles	 smilestrue 	smiles	 similartanimoto 	0	 similardice 	0

   15   16  0  0  0  0            999 V3000
M  V30 BEGIN CTAB
M  V30 COUNTS 15 16 0 0 0
M  V30 BEGIN ATOM
M  V30 1 C -2.5391 -0.1953 0.0000 0
M  V30 2 C -1.7578 -1.3672 0.0000 0
M  V30 3 C -1.7578 0.9766 0.0000 0
M  V30 4 C -0.3906 -0.7812 0.0000 0
M  V30 5 C -0.3906 0.5859 0.0000 0
M  V30 6 C 0.7812 1.1719 0.0000 0
M  V30 7 C 1.9531 -0.7812 0.0000 0
M  V30 8 N 0.7812 -1.5625 0.0000 0
M  V30 9 N 1.9531 0.3906 0.0000 0
M  V30 10 H -3.5156 -0.1953 0.0000 0
M  V30 11 H -2.1484 2.1484 0.0000 0
M  V30 12 H -1.9531 -2.3438 0.0000 0
M  V30 13 H 0.9766 2.3438 0.0000 0
M  V30 14 H 2.9297 -1.3672 0.0000 0
M  V30 15 H 2.7344 0.9766 0.0000 0
M  V30 END ATOM
M  V30 BEGIN BOND
M  V30 1 3 1 2
M  V30 2 3 1 3
M  V30 3 1 1 10
M  V30 4 3 2 4
M  V30 5 1 2 12
M  V30 6 3 3 5
M  V30 7 1 3 11
M  V30 8 2 4 5
M  V30 9 1 4 8
M  V30 10 1 5 6
M  V30 11 1 6 9
M  V30 12 1 6 13
M  V30 13 1 7 8
M  V30 14 1 7 9
M  V30 15 1 7 14
M  V30 16 1 9 15
M  V30 END BOND
M  V30 END CTAB
M  END
>  <ID>
162
$$$$
Structure_163
Score 	 8.0, smilesprid 	smiles	 smilestrue 	smiles	 similartanimoto 	0	 similardice 	0

   15   16  0  0  0  0            999 V3000
M  V30 BEGIN CTAB
M  V30 COUNTS 15 16 0 0 0
M  V30 BEGIN ATOM
M  V30 1 C -2.5391 -0.1953 0.0000 0
M  V30 2 C -1.7578 -1.3672 0.0000 0
M  V30 3 C -1.7578 0.9766 0.0000 0
M  V30 4 C -0.3906 -0.7812 0.0000 0
M  V30 5 C -0.3906 0.5859 0.0000 0
M  V30 6 C 0.7812 1.1719 0.0000 0
M  V30 7 C 1.9531 -0.7812 0.0000 0
M  V30 8 N 0.7812 -1.5625 0.0000 0
M  V30 9 N 1.9531 0.3906 0.0000 0
M  V30 10 H -3.5156 -0.1953 0.0000 0
M  V30 11 H -2.1484 2.1484 0.0000 0
M  V30 12 H -1.9531 -2.3438 0.0000 0
M  V30 13 H 0.9766 2.3438 0.0000 0
M  V30 14 H 2.9297 -1.3672 0.0000 0
M  V30 15 H 2.7344 0.9766 0.0000 0
M  V30 END ATOM
M  V30 BEGIN BOND
M  V30 1 1 1 2
M  V30 2 1 1 3
M  V30 3 1 1 10
M  V30 4 1 2 4
M  V30 5 1 2 12
M  V30 6 1 3 5
M  V30 7 1 3 11
M  V30 8 3 4 5
M  V30 9 1 4 8
M  V30 10 1 5 6
M  V30 11 1 6 9
M  V30 12 1 6 13
M  V30 13 1 7 8
M  V30 14 1 7 9
M  V30 15 1 7 14
M  V30 16 1 9 15
M  V30 END BOND
M  V30 END CTAB
M  END
>  <ID>
163
$$$$
Structure_164
Score 	 6.0, smilesprid 	smiles	 smilestrue 	smiles	 similartanimoto 	0	 similardice 	0

   15   16  0  0  0  0            999 V3000
M  V30 BEGIN CTAB
M  V30 COUNTS 15 16 0 0 0
M  V30 BEGIN ATOM
M  V30 1 C -2.5391 -0.1953 0.0000 0
M  V30 2 C -1.7578 -1.3672 0.0000 0
M  V30 3 C -1.7578 0.9766 0.0000 0
M  V30 4 C -0.3906 -0.7812 0.0000 0
M  V30 5 C -0.3906 0.5859 0.0000 0
M  V30 6 C 0.7812 1.1719 0.0000 0
M  V30 7 C 1.9531 -0.7812 0.0000 0
M  V30 8 N 0.7812 -1.5625 0.0000 0
M  V30 9 N 1.9531 0.3906 0.0000 0
M  V30 10 H -3.5156 -0.1953 0.0000 0
M  V30 11 H -2.1484 2.1484 0.0000 0
M  V30 12 H -1.9531 -2.3438 0.0000 0
M  V30 13 H 0.9766 2.3438 0.0000 0
M  V30 14 H 2.9297 -1.3672 0.0000 0
M  V30 15 H 2.7344 0.9766 0.0000 0
M  V30 END ATOM
M  V30 BEGIN BOND
M  V30 1 2 1 2
M  V30 2 1 1 3
M  V30 3 1 1 10
M  V30 4 1 2 4
M  V30 5 1 2 12
M  V30 6 1 3 5
M  V30 7 1 3 11
M  V30 8 3 4 5
M  V30 9 1 4 8
M  V30 10 1 5 6
M  V30 11 1 6 9
M  V30 12 1 6 13
M  V30 13 1 7 8
M  V30 14 1 7 9
M  V30 15 1 7 14
M  V30 16 1 9 15
M  V30 END BOND
M  V30 END CTAB
M  END
>  <ID>
164
$$$$
Structure_165
Score 	 8.0, smilesprid 	smiles	 smilestrue 	smiles	 similartanimoto 	0	 similardice 	0

   15   16  0  0  0  0            999 V3000
M  V30 BEGIN CTAB
M  V30 COUNTS 15 16 0 0 0
M  V30 BEGIN ATOM
M  V30 1 C -2.5391 -0.1953 0.0000 0
M  V30 2 C -1.7578 -1.3672 0.0000 0
M  V30 3 C -1.7578 0.9766 0.0000 0
M  V30 4 C -0.3906 -0.7812 0.0000 0
M  V30 5 C -0.3906 0.5859 0.0000 0
M  V30 6 C 0.7812 1.1719 0.0000 0
M  V30 7 C 1.9531 -0.7812 0.0000 0
M  V30 8 N 0.7812 -1.5625 0.0000 0
M  V30 9 N 1.9531 0.3906 0.0000 0
M  V30 10 H -3.5156 -0.1953 0.0000 0
M  V30 11 H -2.1484 2.1484 0.0000 0
M  V30 12 H -1.9531 -2.3438 0.0000 0
M  V30 13 H 0.9766 2.3438 0.0000 0
M  V30 14 H 2.9297 -1.3672 0.0000 0
M  V30 15 H 2.7344 0.9766 0.0000 0
M  V30 END ATOM
M  V30 BEGIN BOND
M  V30 1 3 1 2
M  V30 2 1 1 3
M  V30 3 1 1 10
M  V30 4 1 2 4
M  V30 5 1 2 12
M  V30 6 1 3 5
M  V30 7 1 3 11
M  V30 8 3 4 5
M  V30 9 1 4 8
M  V30 10 1 5 6
M  V30 11 1 6 9
M  V30 12 1 6 13
M  V30 13 1 7 8
M  V30 14 1 7 9
M  V30 15 1 7 14
M  V30 16 1 9 15
M  V30 END BOND
M  V30 END CTAB
M  END
>  <ID>
165
$$$$
Structure_166
Score 	 6.0, smilesprid 	smiles	 smilestrue 	smiles	 similartanimoto 	0	 similardice 	0

   15   16  0  0  0  0            999 V3000
M  V30 BEGIN CTAB
M  V30 COUNTS 15 16 0 0 0
M  V30 BEGIN ATOM
M  V30 1 C -2.5391 -0.1953 0.0000 0
M  V30 2 C -1.7578 -1.3672 0.0000 0
M  V30 3 C -1.7578 0.9766 0.0000 0
M  V30 4 C -0.3906 -0.7812 0.0000 0
M  V30 5 C -0.3906 0.5859 0.0000 0
M  V30 6 C 0.7812 1.1719 0.0000 0
M  V30 7 C 1.9531 -0.7812 0.0000 0
M  V30 8 N 0.7812 -1.5625 0.0000 0
M  V30 9 N 1.9531 0.3906 0.0000 0
M  V30 10 H -3.5156 -0.1953 0.0000 0
M  V30 11 H -2.1484 2.1484 0.0000 0
M  V30 12 H -1.9531 -2.3438 0.0000 0
M  V30 13 H 0.9766 2.3438 0.0000 0
M  V30 14 H 2.9297 -1.3672 0.0000 0
M  V30 15 H 2.7344 0.9766 0.0000 0
M  V30 END ATOM
M  V30 BEGIN BOND
M  V30 1 1 1 2
M  V30 2 2 1 3
M  V30 3 1 1 10
M  V30 4 1 2 4
M  V30 5 1 2 12
M  V30 6 1 3 5
M  V30 7 1 3 11
M  V30 8 3 4 5
M  V30 9 1 4 8
M  V30 10 1 5 6
M  V30 11 1 6 9
M  V30 12 1 6 13
M  V30 13 1 7 8
M  V30 14 1 7 9
M  V30 15 1 7 14
M  V30 16 1 9 15
M  V30 END BOND
M  V30 END CTAB
M  END
>  <ID>
166
$$$$
Structure_167
Score 	 6.0, smilesprid 	smiles	 smilestrue 	smiles	 similartanimoto 	0	 similardice 	0

   15   16  0  0  0  0            999 V3000
M  V30 BEGIN CTAB
M  V30 COUNTS 15 16 0 0 0
M  V30 BEGIN ATOM
M  V30 1 C -2.5391 -0.1953 0.0000 0
M  V30 2 C -1.7578 -1.3672 0.0000 0
M  V30 3 C -1.7578 0.9766 0.0000 0
M  V30 4 C -0.3906 -0.7812 0.0000 0
M  V30 5 C -0.3906 0.5859 0.0000 0
M  V30 6 C 0.7812 1.1719 0.0000 0
M  V30 7 C 1.9531 -0.7812 0.0000 0
M  V30 8 N 0.7812 -1.5625 0.0000 0
M  V30 9 N 1.9531 0.3906 0.0000 0
M  V30 10 H -3.5156 -0.1953 0.0000 0
M  V30 11 H -2.1484 2.1484 0.0000 0
M  V30 12 H -1.9531 -2.3438 0.0000 0
M  V30 13 H 0.9766 2.3438 0.0000 0
M  V30 14 H 2.9297 -1.3672 0.0000 0
M  V30 15 H 2.7344 0.9766 0.0000 0
M  V30 END ATOM
M  V30 BEGIN BOND
M  V30 1 2 1 2
M  V30 2 2 1 3
M  V30 3 1 1 10
M  V30 4 1 2 4
M  V30 5 1 2 12
M  V30 6 1 3 5
M  V30 7 1 3 11
M  V30 8 3 4 5
M  V30 9 1 4 8
M  V30 10 1 5 6
M  V30 11 1 6 9
M  V30 12 1 6 13
M  V30 13 1 7 8
M  V30 14 1 7 9
M  V30 15 1 7 14
M  V30 16 1 9 15
M  V30 END BOND
M  V30 END CTAB
M  END
>  <ID>
167
$$$$
Structure_168
Score 	 8.0, smilesprid 	smiles	 smilestrue 	smiles	 similartanimoto 	0	 similardice 	0

   15   16  0  0  0  0            999 V3000
M  V30 BEGIN CTAB
M  V30 COUNTS 15 16 0 0 0
M  V30 BEGIN ATOM
M  V30 1 C -2.5391 -0.1953 0.0000 0
M  V30 2 C -1.7578 -1.3672 0.0000 0
M  V30 3 C -1.7578 0.9766 0.0000 0
M  V30 4 C -0.3906 -0.7812 0.0000 0
M  V30 5 C -0.3906 0.5859 0.0000 0
M  V30 6 C 0.7812 1.1719 0.0000 0
M  V30 7 C 1.9531 -0.7812 0.0000 0
M  V30 8 N 0.7812 -1.5625 0.0000 0
M  V30 9 N 1.9531 0.3906 0.0000 0
M  V30 10 H -3.5156 -0.1953 0.0000 0
M  V30 11 H -2.1484 2.1484 0.0000 0
M  V30 12 H -1.9531 -2.3438 0.0000 0
M  V30 13 H 0.9766 2.3438 0.0000 0
M  V30 14 H 2.9297 -1.3672 0.0000 0
M  V30 15 H 2.7344 0.9766 0.0000 0
M  V30 END ATOM
M  V30 BEGIN BOND
M  V30 1 3 1 2
M  V30 2 2 1 3
M  V30 3 1 1 10
M  V30 4 1 2 4
M  V30 5 1 2 12
M  V30 6 1 3 5
M  V30 7 1 3 11
M  V30 8 3 4 5
M  V30 9 1 4 8
M  V30 10 1 5 6
M  V30 11 1 6 9
M  V30 12 1 6 13
M  V30 13 1 7 8
M  V30 14 1 7 9
M  V30 15 1 7 14
M  V30 16 1 9 15
M  V30 END BOND
M  V30 END CTAB
M  END
>  <ID>
168
$$$$
Structure_169
Score 	 8.0, smilesprid 	smiles	 smilestrue 	smiles	 similartanimoto 	0	 similardice 	0

   15   16  0  0  0  0            999 V3000
M  V30 BEGIN CTAB
M  V30 COUNTS 15 16 0 0 0
M  V30 BEGIN ATOM
M  V30 1 C -2.5391 -0.1953 0.0000 0
M  V30 2 C -1.7578 -1.3672 0.0000 0
M  V30 3 C -1.7578 0.9766 0.0000 0
M  V30 4 C -0.3906 -0.7812 0.0000 0
M  V30 5 C -0.3906 0.5859 0.0000 0
M  V30 6 C 0.7812 1.1719 0.0000 0
M  V30 7 C 1.9531 -0.7812 0.0000 0
M  V30 8 N 0.7812 -1.5625 0.0000 0
M  V30 9 N 1.9531 0.3906 0.0000 0
M  V30 10 H -3.5156 -0.1953 0.0000 0
M  V30 11 H -2.1484 2.1484 0.0000 0
M  V30 12 H -1.9531 -2.3438 0.0000 0
M  V30 13 H 0.9766 2.3438 0.0000 0
M  V30 14 H 2.9297 -1.3672 0.0000 0
M  V30 15 H 2.7344 0.9766 0.0000 0
M  V30 END ATOM
M  V30 BEGIN BOND
M  V30 1 1 1 2
M  V30 2 3 1 3
M  V30 3 1 1 10
M  V30 4 1 2 4
M  V30 5 1 2 12
M  V30 6 1 3 5
M  V30 7 1 3 11
M  V30 8 3 4 5
M  V30 9 1 4 8
M  V30 10 1 5 6
M  V30 11 1 6 9
M  V30 12 1 6 13
M  V30 13 1 7 8
M  V30 14 1 7 9
M  V30 15 1 7 14
M  V30 16 1 9 15
M  V30 END BOND
M  V30 END CTAB
M  END
>  <ID>
169
$$$$
Structure_170
Score 	 8.0, smilesprid 	smiles	 smilestrue 	smiles	 similartanimoto 	0	 similardice 	0

   15   16  0  0  0  0            999 V3000
M  V30 BEGIN CTAB
M  V30 COUNTS 15 16 0 0 0
M  V30 BEGIN ATOM
M  V30 1 C -2.5391 -0.1953 0.0000 0
M  V30 2 C -1.7578 -1.3672 0.0000 0
M  V30 3 C -1.7578 0.9766 0.0000 0
M  V30 4 C -0.3906 -0.7812 0.0000 0
M  V30 5 C -0.3906 0.5859 0.0000 0
M  V30 6 C 0.7812 1.1719 0.0000 0
M  V30 7 C 1.9531 -0.7812 0.0000 0
M  V30 8 N 0.7812 -1.5625 0.0000 0
M  V30 9 N 1.9531 0.3906 0.0000 0
M  V30 10 H -3.5156 -0.1953 0.0000 0
M  V30 11 H -2.1484 2.1484 0.0000 0
M  V30 12 H -1.9531 -2.3438 0.0000 0
M  V30 13 H 0.9766 2.3438 0.0000 0
M  V30 14 H 2.9297 -1.3672 0.0000 0
M  V30 15 H 2.7344 0.9766 0.0000 0
M  V30 END ATOM
M  V30 BEGIN BOND
M  V30 1 2 1 2
M  V30 2 3 1 3
M  V30 3 1 1 10
M  V30 4 1 2 4
M  V30 5 1 2 12
M  V30 6 1 3 5
M  V30 7 1 3 11
M  V30 8 3 4 5
M  V30 9 1 4 8
M  V30 10 1 5 6
M  V30 11 1 6 9
M  V30 12 1 6 13
M  V30 13 1 7 8
M  V30 14 1 7 9
M  V30 15 1 7 14
M  V30 16 1 9 15
M  V30 END BOND
M  V30 END CTAB
M  END
>  <ID>
170
$$$$
Structure_171
Score 	 10.0, smilesprid 	smiles	 smilestrue 	smiles	 similartanimoto 	0	 similardice 	0

   15   16  0  0  0  0            999 V3000
M  V30 BEGIN CTAB
M  V30 COUNTS 15 16 0 0 0
M  V30 BEGIN ATOM
M  V30 1 C -2.5391 -0.1953 0.0000 0
M  V30 2 C -1.7578 -1.3672 0.0000 0
M  V30 3 C -1.7578 0.9766 0.0000 0
M  V30 4 C -0.3906 -0.7812 0.0000 0
M  V30 5 C -0.3906 0.5859 0.0000 0
M  V30 6 C 0.7812 1.1719 0.0000 0
M  V30 7 C 1.9531 -0.7812 0.0000 0
M  V30 8 N 0.7812 -1.5625 0.0000 0
M  V30 9 N 1.9531 0.3906 0.0000 0
M  V30 10 H -3.5156 -0.1953 0.0000 0
M  V30 11 H -2.1484 2.1484 0.0000 0
M  V30 12 H -1.9531 -2.3438 0.0000 0
M  V30 13 H 0.9766 2.3438 0.0000 0
M  V30 14 H 2.9297 -1.3672 0.0000 0
M  V30 15 H 2.7344 0.9766 0.0000 0
M  V30 END ATOM
M  V30 BEGIN BOND
M  V30 1 3 1 2
M  V30 2 3 1 3
M  V30 3 1 1 10
M  V30 4 1 2 4
M  V30 5 1 2 12
M  V30 6 1 3 5
M  V30 7 1 3 11
M  V30 8 3 4 5
M  V30 9 1 4 8
M  V30 10 1 5 6
M  V30 11 1 6 9
M  V30 12 1 6 13
M  V30 13 1 7 8
M  V30 14 1 7 9
M  V30 15 1 7 14
M  V30 16 1 9 15
M  V30 END BOND
M  V30 END CTAB
M  END
>  <ID>
171
$$$$
Structure_172
Score 	 8.0, smilesprid 	smiles	 smilestrue 	smiles	 similartanimoto 	0	 similardice 	0

   15   16  0  0  0  0            999 V3000
M  V30 BEGIN CTAB
M  V30 COUNTS 15 16 0 0 0
M  V30 BEGIN ATOM
M  V30 1 C -2.5391 -0.1953 0.0000 0
M  V30 2 C -1.7578 -1.3672 0.0000 0
M  V30 3 C -1.7578 0.9766 0.0000 0
M  V30 4 C -0.3906 -0.7812 0.0000 0
M  V30 5 C -0.3906 0.5859 0.0000 0
M  V30 6 C 0.7812 1.1719 0.0000 0
M  V30 7 C 1.9531 -0.7812 0.0000 0
M  V30 8 N 0.7812 -1.5625 0.0000 0
M  V30 9 N 1.9531 0.3906 0.0000 0
M  V30 10 H -3.5156 -0.1953 0.0000 0
M  V30 11 H -2.1484 2.1484 0.0000 0
M  V30 12 H -1.9531 -2.3438 0.0000 0
M  V30 13 H 0.9766 2.3438 0.0000 0
M  V30 14 H 2.9297 -1.3672 0.0000 0
M  V30 15 H 2.7344 0.9766 0.0000 0
M  V30 END ATOM
M  V30 BEGIN BOND
M  V30 1 1 1 2
M  V30 2 1 1 3
M  V30 3 1 1 10
M  V30 4 1 2 4
M  V30 5 1 2 12
M  V30 6 2 3 5
M  V30 7 1 3 11
M  V30 8 3 4 5
M  V30 9 1 4 8
M  V30 10 1 5 6
M  V30 11 1 6 9
M  V30 12 1 6 13
M  V30 13 1 7 8
M  V30 14 1 7 9
M  V30 15 1 7 14
M  V30 16 1 9 15
M  V30 END BOND
M  V30 END CTAB
M  END
>  <ID>
172
$$$$
Structure_173
Score 	 6.0, smilesprid 	smiles	 smilestrue 	smiles	 similartanimoto 	0	 similardice 	0

   15   16  0  0  0  0            999 V3000
M  V30 BEGIN CTAB
M  V30 COUNTS 15 16 0 0 0
M  V30 BEGIN ATOM
M  V30 1 C -2.5391 -0.1953 0.0000 0
M  V30 2 C -1.7578 -1.3672 0.0000 0
M  V30 3 C -1.7578 0.9766 0.0000 0
M  V30 4 C -0.3906 -0.7812 0.0000 0
M  V30 5 C -0.3906 0.5859 0.0000 0
M  V30 6 C 0.7812 1.1719 0.0000 0
M  V30 7 C 1.9531 -0.7812 0.0000 0
M  V30 8 N 0.7812 -1.5625 0.0000 0
M  V30 9 N 1.9531 0.3906 0.0000 0
M  V30 10 H -3.5156 -0.1953 0.0000 0
M  V30 11 H -2.1484 2.1484 0.0000 0
M  V30 12 H -1.9531 -2.3438 0.0000 0
M  V30 13 H 0.9766 2.3438 0.0000 0
M  V30 14 H 2.9297 -1.3672 0.0000 0
M  V30 15 H 2.7344 0.9766 0.0000 0
M  V30 END ATOM
M  V30 BEGIN BOND
M  V30 1 2 1 2
M  V30 2 1 1 3
M  V30 3 1 1 10
M  V30 4 1 2 4
M  V30 5 1 2 12
M  V30 6 2 3 5
M  V30 7 1 3 11
M  V30 8 3 4 5
M  V30 9 1 4 8
M  V30 10 1 5 6
M  V30 11 1 6 9
M  V30 12 1 6 13
M  V30 13 1 7 8
M  V30 14 1 7 9
M  V30 15 1 7 14
M  V30 16 1 9 15
M  V30 END BOND
M  V30 END CTAB
M  END
>  <ID>
173
$$$$
Structure_174
Score 	 8.0, smilesprid 	smiles	 smilestrue 	smiles	 similartanimoto 	0	 similardice 	0

   15   16  0  0  0  0            999 V3000
M  V30 BEGIN CTAB
M  V30 COUNTS 15 16 0 0 0
M  V30 BEGIN ATOM
M  V30 1 C -2.5391 -0.1953 0.0000 0
M  V30 2 C -1.7578 -1.3672 0.0000 0
M  V30 3 C -1.7578 0.9766 0.0000 0
M  V30 4 C -0.3906 -0.7812 0.0000 0
M  V30 5 C -0.3906 0.5859 0.0000 0
M  V30 6 C 0.7812 1.1719 0.0000 0
M  V30 7 C 1.9531 -0.7812 0.0000 0
M  V30 8 N 0.7812 -1.5625 0.0000 0
M  V30 9 N 1.9531 0.3906 0.0000 0
M  V30 10 H -3.5156 -0.1953 0.0000 0
M  V30 11 H -2.1484 2.1484 0.0000 0
M  V30 12 H -1.9531 -2.3438 0.0000 0
M  V30 13 H 0.9766 2.3438 0.0000 0
M  V30 14 H 2.9297 -1.3672 0.0000 0
M  V30 15 H 2.7344 0.9766 0.0000 0
M  V30 END ATOM
M  V30 BEGIN BOND
M  V30 1 3 1 2
M  V30 2 1 1 3
M  V30 3 1 1 10
M  V30 4 1 2 4
M  V30 5 1 2 12
M  V30 6 2 3 5
M  V30 7 1 3 11
M  V30 8 3 4 5
M  V30 9 1 4 8
M  V30 10 1 5 6
M  V30 11 1 6 9
M  V30 12 1 6 13
M  V30 13 1 7 8
M  V30 14 1 7 9
M  V30 15 1 7 14
M  V30 16 1 9 15
M  V30 END BOND
M  V30 END CTAB
M  END
>  <ID>
174
$$$$
Structure_175
Score 	 8.0, smilesprid 	smiles	 smilestrue 	smiles	 similartanimoto 	0	 similardice 	0

   15   16  0  0  0  0            999 V3000
M  V30 BEGIN CTAB
M  V30 COUNTS 15 16 0 0 0
M  V30 BEGIN ATOM
M  V30 1 C -2.5391 -0.1953 0.0000 0
M  V30 2 C -1.7578 -1.3672 0.0000 0
M  V30 3 C -1.7578 0.9766 0.0000 0
M  V30 4 C -0.3906 -0.7812 0.0000 0
M  V30 5 C -0.3906 0.5859 0.0000 0
M  V30 6 C 0.7812 1.1719 0.0000 0
M  V30 7 C 1.9531 -0.7812 0.0000 0
M  V30 8 N 0.7812 -1.5625 0.0000 0
M  V30 9 N 1.9531 0.3906 0.0000 0
M  V30 10 H -3.5156 -0.1953 0.0000 0
M  V30 11 H -2.1484 2.1484 0.0000 0
M  V30 12 H -1.9531 -2.3438 0.0000 0
M  V30 13 H 0.9766 2.3438 0.0000 0
M  V30 14 H 2.9297 -1.3672 0.0000 0
M  V30 15 H 2.7344 0.9766 0.0000 0
M  V30 END ATOM
M  V30 BEGIN BOND
M  V30 1 1 1 2
M  V30 2 2 1 3
M  V30 3 1 1 10
M  V30 4 1 2 4
M  V30 5 1 2 12
M  V30 6 2 3 5
M  V30 7 1 3 11
M  V30 8 3 4 5
M  V30 9 1 4 8
M  V30 10 1 5 6
M  V30 11 1 6 9
M  V30 12 1 6 13
M  V30 13 1 7 8
M  V30 14 1 7 9
M  V30 15 1 7 14
M  V30 16 1 9 15
M  V30 END BOND
M  V30 END CTAB
M  END
>  <ID>
175
$$$$
Structure_176
Score 	 8.0, smilesprid 	smiles	 smilestrue 	smiles	 similartanimoto 	0	 similardice 	0

   15   16  0  0  0  0            999 V3000
M  V30 BEGIN CTAB
M  V30 COUNTS 15 16 0 0 0
M  V30 BEGIN ATOM
M  V30 1 C -2.5391 -0.1953 0.0000 0
M  V30 2 C -1.7578 -1.3672 0.0000 0
M  V30 3 C -1.7578 0.9766 0.0000 0
M  V30 4 C -0.3906 -0.7812 0.0000 0
M  V30 5 C -0.3906 0.5859 0.0000 0
M  V30 6 C 0.7812 1.1719 0.0000 0
M  V30 7 C 1.9531 -0.7812 0.0000 0
M  V30 8 N 0.7812 -1.5625 0.0000 0
M  V30 9 N 1.9531 0.3906 0.0000 0
M  V30 10 H -3.5156 -0.1953 0.0000 0
M  V30 11 H -2.1484 2.1484 0.0000 0
M  V30 12 H -1.9531 -2.3438 0.0000 0
M  V30 13 H 0.9766 2.3438 0.0000 0
M  V30 14 H 2.9297 -1.3672 0.0000 0
M  V30 15 H 2.7344 0.9766 0.0000 0
M  V30 END ATOM
M  V30 BEGIN BOND
M  V30 1 2 1 2
M  V30 2 2 1 3
M  V30 3 1 1 10
M  V30 4 1 2 4
M  V30 5 1 2 12
M  V30 6 2 3 5
M  V30 7 1 3 11
M  V30 8 3 4 5
M  V30 9 1 4 8
M  V30 10 1 5 6
M  V30 11 1 6 9
M  V30 12 1 6 13
M  V30 13 1 7 8
M  V30 14 1 7 9
M  V30 15 1 7 14
M  V30 16 1 9 15
M  V30 END BOND
M  V30 END CTAB
M  END
>  <ID>
176
$$$$
Structure_177
Score 	 10.0, smilesprid 	smiles	 smilestrue 	smiles	 similartanimoto 	0	 similardice 	0

   15   16  0  0  0  0            999 V3000
M  V30 BEGIN CTAB
M  V30 COUNTS 15 16 0 0 0
M  V30 BEGIN ATOM
M  V30 1 C -2.5391 -0.1953 0.0000 0
M  V30 2 C -1.7578 -1.3672 0.0000 0
M  V30 3 C -1.7578 0.9766 0.0000 0
M  V30 4 C -0.3906 -0.7812 0.0000 0
M  V30 5 C -0.3906 0.5859 0.0000 0
M  V30 6 C 0.7812 1.1719 0.0000 0
M  V30 7 C 1.9531 -0.7812 0.0000 0
M  V30 8 N 0.7812 -1.5625 0.0000 0
M  V30 9 N 1.9531 0.3906 0.0000 0
M  V30 10 H -3.5156 -0.1953 0.0000 0
M  V30 11 H -2.1484 2.1484 0.0000 0
M  V30 12 H -1.9531 -2.3438 0.0000 0
M  V30 13 H 0.9766 2.3438 0.0000 0
M  V30 14 H 2.9297 -1.3672 0.0000 0
M  V30 15 H 2.7344 0.9766 0.0000 0
M  V30 END ATOM
M  V30 BEGIN BOND
M  V30 1 3 1 2
M  V30 2 2 1 3
M  V30 3 1 1 10
M  V30 4 1 2 4
M  V30 5 1 2 12
M  V30 6 2 3 5
M  V30 7 1 3 11
M  V30 8 3 4 5
M  V30 9 1 4 8
M  V30 10 1 5 6
M  V30 11 1 6 9
M  V30 12 1 6 13
M  V30 13 1 7 8
M  V30 14 1 7 9
M  V30 15 1 7 14
M  V30 16 1 9 15
M  V30 END BOND
M  V30 END CTAB
M  END
>  <ID>
177
$$$$
Structure_178
Score 	 10.0, smilesprid 	smiles	 smilestrue 	smiles	 similartanimoto 	0	 similardice 	0

   15   16  0  0  0  0            999 V3000
M  V30 BEGIN CTAB
M  V30 COUNTS 15 16 0 0 0
M  V30 BEGIN ATOM
M  V30 1 C -2.5391 -0.1953 0.0000 0
M  V30 2 C -1.7578 -1.3672 0.0000 0
M  V30 3 C -1.7578 0.9766 0.0000 0
M  V30 4 C -0.3906 -0.7812 0.0000 0
M  V30 5 C -0.3906 0.5859 0.0000 0
M  V30 6 C 0.7812 1.1719 0.0000 0
M  V30 7 C 1.9531 -0.7812 0.0000 0
M  V30 8 N 0.7812 -1.5625 0.0000 0
M  V30 9 N 1.9531 0.3906 0.0000 0
M  V30 10 H -3.5156 -0.1953 0.0000 0
M  V30 11 H -2.1484 2.1484 0.0000 0
M  V30 12 H -1.9531 -2.3438 0.0000 0
M  V30 13 H 0.9766 2.3438 0.0000 0
M  V30 14 H 2.9297 -1.3672 0.0000 0
M  V30 15 H 2.7344 0.9766 0.0000 0
M  V30 END ATOM
M  V30 BEGIN BOND
M  V30 1 1 1 2
M  V30 2 3 1 3
M  V30 3 1 1 10
M  V30 4 1 2 4
M  V30 5 1 2 12
M  V30 6 2 3 5
M  V30 7 1 3 11
M  V30 8 3 4 5
M  V30 9 1 4 8
M  V30 10 1 5 6
M  V30 11 1 6 9
M  V30 12 1 6 13
M  V30 13 1 7 8
M  V30 14 1 7 9
M  V30 15 1 7 14
M  V30 16 1 9 15
M  V30 END BOND
M  V30 END CTAB
M  END
>  <ID>
178
$$$$
Structure_179
Score 	 10.0, smilesprid 	smiles	 smilestrue 	smiles	 similartanimoto 	0	 similardice 	0

   15   16  0  0  0  0            999 V3000
M  V30 BEGIN CTAB
M  V30 COUNTS 15 16 0 0 0
M  V30 BEGIN ATOM
M  V30 1 C -2.5391 -0.1953 0.0000 0
M  V30 2 C -1.7578 -1.3672 0.0000 0
M  V30 3 C -1.7578 0.9766 0.0000 0
M  V30 4 C -0.3906 -0.7812 0.0000 0
M  V30 5 C -0.3906 0.5859 0.0000 0
M  V30 6 C 0.7812 1.1719 0.0000 0
M  V30 7 C 1.9531 -0.7812 0.0000 0
M  V30 8 N 0.7812 -1.5625 0.0000 0
M  V30 9 N 1.9531 0.3906 0.0000 0
M  V30 10 H -3.5156 -0.1953 0.0000 0
M  V30 11 H -2.1484 2.1484 0.0000 0
M  V30 12 H -1.9531 -2.3438 0.0000 0
M  V30 13 H 0.9766 2.3438 0.0000 0
M  V30 14 H 2.9297 -1.3672 0.0000 0
M  V30 15 H 2.7344 0.9766 0.0000 0
M  V30 END ATOM
M  V30 BEGIN BOND
M  V30 1 2 1 2
M  V30 2 3 1 3
M  V30 3 1 1 10
M  V30 4 1 2 4
M  V30 5 1 2 12
M  V30 6 2 3 5
M  V30 7 1 3 11
M  V30 8 3 4 5
M  V30 9 1 4 8
M  V30 10 1 5 6
M  V30 11 1 6 9
M  V30 12 1 6 13
M  V30 13 1 7 8
M  V30 14 1 7 9
M  V30 15 1 7 14
M  V30 16 1 9 15
M  V30 END BOND
M  V30 END CTAB
M  END
>  <ID>
179
$$$$
Structure_180
Score 	 12.0, smilesprid 	smiles	 smilestrue 	smiles	 similartanimoto 	0	 similardice 	0

   15   16  0  0  0  0            999 V3000
M  V30 BEGIN CTAB
M  V30 COUNTS 15 16 0 0 0
M  V30 BEGIN ATOM
M  V30 1 C -2.5391 -0.1953 0.0000 0
M  V30 2 C -1.7578 -1.3672 0.0000 0
M  V30 3 C -1.7578 0.9766 0.0000 0
M  V30 4 C -0.3906 -0.7812 0.0000 0
M  V30 5 C -0.3906 0.5859 0.0000 0
M  V30 6 C 0.7812 1.1719 0.0000 0
M  V30 7 C 1.9531 -0.7812 0.0000 0
M  V30 8 N 0.7812 -1.5625 0.0000 0
M  V30 9 N 1.9531 0.3906 0.0000 0
M  V30 10 H -3.5156 -0.1953 0.0000 0
M  V30 11 H -2.1484 2.1484 0.0000 0
M  V30 12 H -1.9531 -2.3438 0.0000 0
M  V30 13 H 0.9766 2.3438 0.0000 0
M  V30 14 H 2.9297 -1.3672 0.0000 0
M  V30 15 H 2.7344 0.9766 0.0000 0
M  V30 END ATOM
M  V30 BEGIN BOND
M  V30 1 3 1 2
M  V30 2 3 1 3
M  V30 3 1 1 10
M  V30 4 1 2 4
M  V30 5 1 2 12
M  V30 6 2 3 5
M  V30 7 1 3 11
M  V30 8 3 4 5
M  V30 9 1 4 8
M  V30 10 1 5 6
M  V30 11 1 6 9
M  V30 12 1 6 13
M  V30 13 1 7 8
M  V30 14 1 7 9
M  V30 15 1 7 14
M  V30 16 1 9 15
M  V30 END BOND
M  V30 END CTAB
M  END
>  <ID>
180
$$$$
Structure_181
Score 	 10.0, smilesprid 	smiles	 smilestrue 	smiles	 similartanimoto 	0	 similardice 	0

   15   16  0  0  0  0            999 V3000
M  V30 BEGIN CTAB
M  V30 COUNTS 15 16 0 0 0
M  V30 BEGIN ATOM
M  V30 1 C -2.5391 -0.1953 0.0000 0
M  V30 2 C -1.7578 -1.3672 0.0000 0
M  V30 3 C -1.7578 0.9766 0.0000 0
M  V30 4 C -0.3906 -0.7812 0.0000 0
M  V30 5 C -0.3906 0.5859 0.0000 0
M  V30 6 C 0.7812 1.1719 0.0000 0
M  V30 7 C 1.9531 -0.7812 0.0000 0
M  V30 8 N 0.7812 -1.5625 0.0000 0
M  V30 9 N 1.9531 0.3906 0.0000 0
M  V30 10 H -3.5156 -0.1953 0.0000 0
M  V30 11 H -2.1484 2.1484 0.0000 0
M  V30 12 H -1.9531 -2.3438 0.0000 0
M  V30 13 H 0.9766 2.3438 0.0000 0
M  V30 14 H 2.9297 -1.3672 0.0000 0
M  V30 15 H 2.7344 0.9766 0.0000 0
M  V30 END ATOM
M  V30 BEGIN BOND
M  V30 1 1 1 2
M  V30 2 1 1 3
M  V30 3 1 1 10
M  V30 4 1 2 4
M  V30 5 1 2 12
M  V30 6 3 3 5
M  V30 7 1 3 11
M  V30 8 3 4 5
M  V30 9 1 4 8
M  V30 10 1 5 6
M  V30 11 1 6 9
M  V30 12 1 6 13
M  V30 13 1 7 8
M  V30 14 1 7 9
M  V30 15 1 7 14
M  V30 16 1 9 15
M  V30 END BOND
M  V30 END CTAB
M  END
>  <ID>
181
$$$$
Structure_182
Score 	 8.0, smilesprid 	smiles	 smilestrue 	smiles	 similartanimoto 	0	 similardice 	0

   15   16  0  0  0  0            999 V3000
M  V30 BEGIN CTAB
M  V30 COUNTS 15 16 0 0 0
M  V30 BEGIN ATOM
M  V30 1 C -2.5391 -0.1953 0.0000 0
M  V30 2 C -1.7578 -1.3672 0.0000 0
M  V30 3 C -1.7578 0.9766 0.0000 0
M  V30 4 C -0.3906 -0.7812 0.0000 0
M  V30 5 C -0.3906 0.5859 0.0000 0
M  V30 6 C 0.7812 1.1719 0.0000 0
M  V30 7 C 1.9531 -0.7812 0.0000 0
M  V30 8 N 0.7812 -1.5625 0.0000 0
M  V30 9 N 1.9531 0.3906 0.0000 0
M  V30 10 H -3.5156 -0.1953 0.0000 0
M  V30 11 H -2.1484 2.1484 0.0000 0
M  V30 12 H -1.9531 -2.3438 0.0000 0
M  V30 13 H 0.9766 2.3438 0.0000 0
M  V30 14 H 2.9297 -1.3672 0.0000 0
M  V30 15 H 2.7344 0.9766 0.0000 0
M  V30 END ATOM
M  V30 BEGIN BOND
M  V30 1 2 1 2
M  V30 2 1 1 3
M  V30 3 1 1 10
M  V30 4 1 2 4
M  V30 5 1 2 12
M  V30 6 3 3 5
M  V30 7 1 3 11
M  V30 8 3 4 5
M  V30 9 1 4 8
M  V30 10 1 5 6
M  V30 11 1 6 9
M  V30 12 1 6 13
M  V30 13 1 7 8
M  V30 14 1 7 9
M  V30 15 1 7 14
M  V30 16 1 9 15
M  V30 END BOND
M  V30 END CTAB
M  END
>  <ID>
182
$$$$
Structure_183
Score 	 10.0, smilesprid 	smiles	 smilestrue 	smiles	 similartanimoto 	0	 similardice 	0

   15   16  0  0  0  0            999 V3000
M  V30 BEGIN CTAB
M  V30 COUNTS 15 16 0 0 0
M  V30 BEGIN ATOM
M  V30 1 C -2.5391 -0.1953 0.0000 0
M  V30 2 C -1.7578 -1.3672 0.0000 0
M  V30 3 C -1.7578 0.9766 0.0000 0
M  V30 4 C -0.3906 -0.7812 0.0000 0
M  V30 5 C -0.3906 0.5859 0.0000 0
M  V30 6 C 0.7812 1.1719 0.0000 0
M  V30 7 C 1.9531 -0.7812 0.0000 0
M  V30 8 N 0.7812 -1.5625 0.0000 0
M  V30 9 N 1.9531 0.3906 0.0000 0
M  V30 10 H -3.5156 -0.1953 0.0000 0
M  V30 11 H -2.1484 2.1484 0.0000 0
M  V30 12 H -1.9531 -2.3438 0.0000 0
M  V30 13 H 0.9766 2.3438 0.0000 0
M  V30 14 H 2.9297 -1.3672 0.0000 0
M  V30 15 H 2.7344 0.9766 0.0000 0
M  V30 END ATOM
M  V30 BEGIN BOND
M  V30 1 3 1 2
M  V30 2 1 1 3
M  V30 3 1 1 10
M  V30 4 1 2 4
M  V30 5 1 2 12
M  V30 6 3 3 5
M  V30 7 1 3 11
M  V30 8 3 4 5
M  V30 9 1 4 8
M  V30 10 1 5 6
M  V30 11 1 6 9
M  V30 12 1 6 13
M  V30 13 1 7 8
M  V30 14 1 7 9
M  V30 15 1 7 14
M  V30 16 1 9 15
M  V30 END BOND
M  V30 END CTAB
M  END
>  <ID>
183
$$$$
Structure_184
Score 	 10.0, smilesprid 	smiles	 smilestrue 	smiles	 similartanimoto 	0	 similardice 	0

   15   16  0  0  0  0            999 V3000
M  V30 BEGIN CTAB
M  V30 COUNTS 15 16 0 0 0
M  V30 BEGIN ATOM
M  V30 1 C -2.5391 -0.1953 0.0000 0
M  V30 2 C -1.7578 -1.3672 0.0000 0
M  V30 3 C -1.7578 0.9766 0.0000 0
M  V30 4 C -0.3906 -0.7812 0.0000 0
M  V30 5 C -0.3906 0.5859 0.0000 0
M  V30 6 C 0.7812 1.1719 0.0000 0
M  V30 7 C 1.9531 -0.7812 0.0000 0
M  V30 8 N 0.7812 -1.5625 0.0000 0
M  V30 9 N 1.9531 0.3906 0.0000 0
M  V30 10 H -3.5156 -0.1953 0.0000 0
M  V30 11 H -2.1484 2.1484 0.0000 0
M  V30 12 H -1.9531 -2.3438 0.0000 0
M  V30 13 H 0.9766 2.3438 0.0000 0
M  V30 14 H 2.9297 -1.3672 0.0000 0
M  V30 15 H 2.7344 0.9766 0.0000 0
M  V30 END ATOM
M  V30 BEGIN BOND
M  V30 1 1 1 2
M  V30 2 2 1 3
M  V30 3 1 1 10
M  V30 4 1 2 4
M  V30 5 1 2 12
M  V30 6 3 3 5
M  V30 7 1 3 11
M  V30 8 3 4 5
M  V30 9 1 4 8
M  V30 10 1 5 6
M  V30 11 1 6 9
M  V30 12 1 6 13
M  V30 13 1 7 8
M  V30 14 1 7 9
M  V30 15 1 7 14
M  V30 16 1 9 15
M  V30 END BOND
M  V30 END CTAB
M  END
>  <ID>
184
$$$$
Structure_185
Score 	 10.0, smilesprid 	smiles	 smilestrue 	smiles	 similartanimoto 	0	 similardice 	0

   15   16  0  0  0  0            999 V3000
M  V30 BEGIN CTAB
M  V30 COUNTS 15 16 0 0 0
M  V30 BEGIN ATOM
M  V30 1 C -2.5391 -0.1953 0.0000 0
M  V30 2 C -1.7578 -1.3672 0.0000 0
M  V30 3 C -1.7578 0.9766 0.0000 0
M  V30 4 C -0.3906 -0.7812 0.0000 0
M  V30 5 C -0.3906 0.5859 0.0000 0
M  V30 6 C 0.7812 1.1719 0.0000 0
M  V30 7 C 1.9531 -0.7812 0.0000 0
M  V30 8 N 0.7812 -1.5625 0.0000 0
M  V30 9 N 1.9531 0.3906 0.0000 0
M  V30 10 H -3.5156 -0.1953 0.0000 0
M  V30 11 H -2.1484 2.1484 0.0000 0
M  V30 12 H -1.9531 -2.3438 0.0000 0
M  V30 13 H 0.9766 2.3438 0.0000 0
M  V30 14 H 2.9297 -1.3672 0.0000 0
M  V30 15 H 2.7344 0.9766 0.0000 0
M  V30 END ATOM
M  V30 BEGIN BOND
M  V30 1 2 1 2
M  V30 2 2 1 3
M  V30 3 1 1 10
M  V30 4 1 2 4
M  V30 5 1 2 12
M  V30 6 3 3 5
M  V30 7 1 3 11
M  V30 8 3 4 5
M  V30 9 1 4 8
M  V30 10 1 5 6
M  V30 11 1 6 9
M  V30 12 1 6 13
M  V30 13 1 7 8
M  V30 14 1 7 9
M  V30 15 1 7 14
M  V30 16 1 9 15
M  V30 END BOND
M  V30 END CTAB
M  END
>  <ID>
185
$$$$
Structure_186
Score 	 12.0, smilesprid 	smiles	 smilestrue 	smiles	 similartanimoto 	0	 similardice 	0

   15   16  0  0  0  0            999 V3000
M  V30 BEGIN CTAB
M  V30 COUNTS 15 16 0 0 0
M  V30 BEGIN ATOM
M  V30 1 C -2.5391 -0.1953 0.0000 0
M  V30 2 C -1.7578 -1.3672 0.0000 0
M  V30 3 C -1.7578 0.9766 0.0000 0
M  V30 4 C -0.3906 -0.7812 0.0000 0
M  V30 5 C -0.3906 0.5859 0.0000 0
M  V30 6 C 0.7812 1.1719 0.0000 0
M  V30 7 C 1.9531 -0.7812 0.0000 0
M  V30 8 N 0.7812 -1.5625 0.0000 0
M  V30 9 N 1.9531 0.3906 0.0000 0
M  V30 10 H -3.5156 -0.1953 0.0000 0
M  V30 11 H -2.1484 2.1484 0.0000 0
M  V30 12 H -1.9531 -2.3438 0.0000 0
M  V30 13 H 0.9766 2.3438 0.0000 0
M  V30 14 H 2.9297 -1.3672 0.0000 0
M  V30 15 H 2.7344 0.9766 0.0000 0
M  V30 END ATOM
M  V30 BEGIN BOND
M  V30 1 3 1 2
M  V30 2 2 1 3
M  V30 3 1 1 10
M  V30 4 1 2 4
M  V30 5 1 2 12
M  V30 6 3 3 5
M  V30 7 1 3 11
M  V30 8 3 4 5
M  V30 9 1 4 8
M  V30 10 1 5 6
M  V30 11 1 6 9
M  V30 12 1 6 13
M  V30 13 1 7 8
M  V30 14 1 7 9
M  V30 15 1 7 14
M  V30 16 1 9 15
M  V30 END BOND
M  V30 END CTAB
M  END
>  <ID>
186
$$$$
Structure_187
Score 	 12.0, smilesprid 	smiles	 smilestrue 	smiles	 similartanimoto 	0	 similardice 	0

   15   16  0  0  0  0            999 V3000
M  V30 BEGIN CTAB
M  V30 COUNTS 15 16 0 0 0
M  V30 BEGIN ATOM
M  V30 1 C -2.5391 -0.1953 0.0000 0
M  V30 2 C -1.7578 -1.3672 0.0000 0
M  V30 3 C -1.7578 0.9766 0.0000 0
M  V30 4 C -0.3906 -0.7812 0.0000 0
M  V30 5 C -0.3906 0.5859 0.0000 0
M  V30 6 C 0.7812 1.1719 0.0000 0
M  V30 7 C 1.9531 -0.7812 0.0000 0
M  V30 8 N 0.7812 -1.5625 0.0000 0
M  V30 9 N 1.9531 0.3906 0.0000 0
M  V30 10 H -3.5156 -0.1953 0.0000 0
M  V30 11 H -2.1484 2.1484 0.0000 0
M  V30 12 H -1.9531 -2.3438 0.0000 0
M  V30 13 H 0.9766 2.3438 0.0000 0
M  V30 14 H 2.9297 -1.3672 0.0000 0
M  V30 15 H 2.7344 0.9766 0.0000 0
M  V30 END ATOM
M  V30 BEGIN BOND
M  V30 1 1 1 2
M  V30 2 3 1 3
M  V30 3 1 1 10
M  V30 4 1 2 4
M  V30 5 1 2 12
M  V30 6 3 3 5
M  V30 7 1 3 11
M  V30 8 3 4 5
M  V30 9 1 4 8
M  V30 10 1 5 6
M  V30 11 1 6 9
M  V30 12 1 6 13
M  V30 13 1 7 8
M  V30 14 1 7 9
M  V30 15 1 7 14
M  V30 16 1 9 15
M  V30 END BOND
M  V30 END CTAB
M  END
>  <ID>
187
$$$$
Structure_188
Score 	 12.0, smilesprid 	smiles	 smilestrue 	smiles	 similartanimoto 	0	 similardice 	0

   15   16  0  0  0  0            999 V3000
M  V30 BEGIN CTAB
M  V30 COUNTS 15 16 0 0 0
M  V30 BEGIN ATOM
M  V30 1 C -2.5391 -0.1953 0.0000 0
M  V30 2 C -1.7578 -1.3672 0.0000 0
M  V30 3 C -1.7578 0.9766 0.0000 0
M  V30 4 C -0.3906 -0.7812 0.0000 0
M  V30 5 C -0.3906 0.5859 0.0000 0
M  V30 6 C 0.7812 1.1719 0.0000 0
M  V30 7 C 1.9531 -0.7812 0.0000 0
M  V30 8 N 0.7812 -1.5625 0.0000 0
M  V30 9 N 1.9531 0.3906 0.0000 0
M  V30 10 H -3.5156 -0.1953 0.0000 0
M  V30 11 H -2.1484 2.1484 0.0000 0
M  V30 12 H -1.9531 -2.3438 0.0000 0
M  V30 13 H 0.9766 2.3438 0.0000 0
M  V30 14 H 2.9297 -1.3672 0.0000 0
M  V30 15 H 2.7344 0.9766 0.0000 0
M  V30 END ATOM
M  V30 BEGIN BOND
M  V30 1 2 1 2
M  V30 2 3 1 3
M  V30 3 1 1 10
M  V30 4 1 2 4
M  V30 5 1 2 12
M  V30 6 3 3 5
M  V30 7 1 3 11
M  V30 8 3 4 5
M  V30 9 1 4 8
M  V30 10 1 5 6
M  V30 11 1 6 9
M  V30 12 1 6 13
M  V30 13 1 7 8
M  V30 14 1 7 9
M  V30 15 1 7 14
M  V30 16 1 9 15
M  V30 END BOND
M  V30 END CTAB
M  END
>  <ID>
188
$$$$
Structure_189
Score 	 14.0, smilesprid 	smiles	 smilestrue 	smiles	 similartanimoto 	0	 similardice 	0

   15   16  0  0  0  0            999 V3000
M  V30 BEGIN CTAB
M  V30 COUNTS 15 16 0 0 0
M  V30 BEGIN ATOM
M  V30 1 C -2.5391 -0.1953 0.0000 0
M  V30 2 C -1.7578 -1.3672 0.0000 0
M  V30 3 C -1.7578 0.9766 0.0000 0
M  V30 4 C -0.3906 -0.7812 0.0000 0
M  V30 5 C -0.3906 0.5859 0.0000 0
M  V30 6 C 0.7812 1.1719 0.0000 0
M  V30 7 C 1.9531 -0.7812 0.0000 0
M  V30 8 N 0.7812 -1.5625 0.0000 0
M  V30 9 N 1.9531 0.3906 0.0000 0
M  V30 10 H -3.5156 -0.1953 0.0000 0
M  V30 11 H -2.1484 2.1484 0.0000 0
M  V30 12 H -1.9531 -2.3438 0.0000 0
M  V30 13 H 0.9766 2.3438 0.0000 0
M  V30 14 H 2.9297 -1.3672 0.0000 0
M  V30 15 H 2.7344 0.9766 0.0000 0
M  V30 END ATOM
M  V30 BEGIN BOND
M  V30 1 3 1 2
M  V30 2 3 1 3
M  V30 3 1 1 10
M  V30 4 1 2 4
M  V30 5 1 2 12
M  V30 6 3 3 5
M  V30 7 1 3 11
M  V30 8 3 4 5
M  V30 9 1 4 8
M  V30 10 1 5 6
M  V30 11 1 6 9
M  V30 12 1 6 13
M  V30 13 1 7 8
M  V30 14 1 7 9
M  V30 15 1 7 14
M  V30 16 1 9 15
M  V30 END BOND
M  V30 END CTAB
M  END
>  <ID>
189
$$$$
Structure_190
Score 	 8.0, smilesprid 	smiles	 smilestrue 	smiles	 similartanimoto 	0	 similardice 	0

   15   16  0  0  0  0            999 V3000
M  V30 BEGIN CTAB
M  V30 COUNTS 15 16 0 0 0
M  V30 BEGIN ATOM
M  V30 1 C -2.5391 -0.1953 0.0000 0
M  V30 2 C -1.7578 -1.3672 0.0000 0
M  V30 3 C -1.7578 0.9766 0.0000 0
M  V30 4 C -0.3906 -0.7812 0.0000 0
M  V30 5 C -0.3906 0.5859 0.0000 0
M  V30 6 C 0.7812 1.1719 0.0000 0
M  V30 7 C 1.9531 -0.7812 0.0000 0
M  V30 8 N 0.7812 -1.5625 0.0000 0
M  V30 9 N 1.9531 0.3906 0.0000 0
M  V30 10 H -3.5156 -0.1953 0.0000 0
M  V30 11 H -2.1484 2.1484 0.0000 0
M  V30 12 H -1.9531 -2.3438 0.0000 0
M  V30 13 H 0.9766 2.3438 0.0000 0
M  V30 14 H 2.9297 -1.3672 0.0000 0
M  V30 15 H 2.7344 0.9766 0.0000 0
M  V30 END ATOM
M  V30 BEGIN BOND
M  V30 1 1 1 2
M  V30 2 1 1 3
M  V30 3 1 1 10
M  V30 4 2 2 4
M  V30 5 1 2 12
M  V30 6 1 3 5
M  V30 7 1 3 11
M  V30 8 3 4 5
M  V30 9 1 4 8
M  V30 10 1 5 6
M  V30 11 1 6 9
M  V30 12 1 6 13
M  V30 13 1 7 8
M  V30 14 1 7 9
M  V30 15 1 7 14
M  V30 16 1 9 15
M  V30 END BOND
M  V30 END CTAB
M  END
>  <ID>
190
$$$$
Structure_191
Score 	 8.0, smilesprid 	smiles	 smilestrue 	smiles	 similartanimoto 	0	 similardice 	0

   15   16  0  0  0  0            999 V3000
M  V30 BEGIN CTAB
M  V30 COUNTS 15 16 0 0 0
M  V30 BEGIN ATOM
M  V30 1 C -2.5391 -0.1953 0.0000 0
M  V30 2 C -1.7578 -1.3672 0.0000 0
M  V30 3 C -1.7578 0.9766 0.0000 0
M  V30 4 C -0.3906 -0.7812 0.0000 0
M  V30 5 C -0.3906 0.5859 0.0000 0
M  V30 6 C 0.7812 1.1719 0.0000 0
M  V30 7 C 1.9531 -0.7812 0.0000 0
M  V30 8 N 0.7812 -1.5625 0.0000 0
M  V30 9 N 1.9531 0.3906 0.0000 0
M  V30 10 H -3.5156 -0.1953 0.0000 0
M  V30 11 H -2.1484 2.1484 0.0000 0
M  V30 12 H -1.9531 -2.3438 0.0000 0
M  V30 13 H 0.9766 2.3438 0.0000 0
M  V30 14 H 2.9297 -1.3672 0.0000 0
M  V30 15 H 2.7344 0.9766 0.0000 0
M  V30 END ATOM
M  V30 BEGIN BOND
M  V30 1 2 1 2
M  V30 2 1 1 3
M  V30 3 1 1 10
M  V30 4 2 2 4
M  V30 5 1 2 12
M  V30 6 1 3 5
M  V30 7 1 3 11
M  V30 8 3 4 5
M  V30 9 1 4 8
M  V30 10 1 5 6
M  V30 11 1 6 9
M  V30 12 1 6 13
M  V30 13 1 7 8
M  V30 14 1 7 9
M  V30 15 1 7 14
M  V30 16 1 9 15
M  V30 END BOND
M  V30 END CTAB
M  END
>  <ID>
191
$$$$
Structure_192
Score 	 10.0, smilesprid 	smiles	 smilestrue 	smiles	 similartanimoto 	0	 similardice 	0

   15   16  0  0  0  0            999 V3000
M  V30 BEGIN CTAB
M  V30 COUNTS 15 16 0 0 0
M  V30 BEGIN ATOM
M  V30 1 C -2.5391 -0.1953 0.0000 0
M  V30 2 C -1.7578 -1.3672 0.0000 0
M  V30 3 C -1.7578 0.9766 0.0000 0
M  V30 4 C -0.3906 -0.7812 0.0000 0
M  V30 5 C -0.3906 0.5859 0.0000 0
M  V30 6 C 0.7812 1.1719 0.0000 0
M  V30 7 C 1.9531 -0.7812 0.0000 0
M  V30 8 N 0.7812 -1.5625 0.0000 0
M  V30 9 N 1.9531 0.3906 0.0000 0
M  V30 10 H -3.5156 -0.1953 0.0000 0
M  V30 11 H -2.1484 2.1484 0.0000 0
M  V30 12 H -1.9531 -2.3438 0.0000 0
M  V30 13 H 0.9766 2.3438 0.0000 0
M  V30 14 H 2.9297 -1.3672 0.0000 0
M  V30 15 H 2.7344 0.9766 0.0000 0
M  V30 END ATOM
M  V30 BEGIN BOND
M  V30 1 3 1 2
M  V30 2 1 1 3
M  V30 3 1 1 10
M  V30 4 2 2 4
M  V30 5 1 2 12
M  V30 6 1 3 5
M  V30 7 1 3 11
M  V30 8 3 4 5
M  V30 9 1 4 8
M  V30 10 1 5 6
M  V30 11 1 6 9
M  V30 12 1 6 13
M  V30 13 1 7 8
M  V30 14 1 7 9
M  V30 15 1 7 14
M  V30 16 1 9 15
M  V30 END BOND
M  V30 END CTAB
M  END
>  <ID>
192
$$$$
Structure_193
Score 	 6.0, smilesprid 	smiles	 smilestrue 	smiles	 similartanimoto 	0	 similardice 	0

   15   16  0  0  0  0            999 V3000
M  V30 BEGIN CTAB
M  V30 COUNTS 15 16 0 0 0
M  V30 BEGIN ATOM
M  V30 1 C -2.5391 -0.1953 0.0000 0
M  V30 2 C -1.7578 -1.3672 0.0000 0
M  V30 3 C -1.7578 0.9766 0.0000 0
M  V30 4 C -0.3906 -0.7812 0.0000 0
M  V30 5 C -0.3906 0.5859 0.0000 0
M  V30 6 C 0.7812 1.1719 0.0000 0
M  V30 7 C 1.9531 -0.7812 0.0000 0
M  V30 8 N 0.7812 -1.5625 0.0000 0
M  V30 9 N 1.9531 0.3906 0.0000 0
M  V30 10 H -3.5156 -0.1953 0.0000 0
M  V30 11 H -2.1484 2.1484 0.0000 0
M  V30 12 H -1.9531 -2.3438 0.0000 0
M  V30 13 H 0.9766 2.3438 0.0000 0
M  V30 14 H 2.9297 -1.3672 0.0000 0
M  V30 15 H 2.7344 0.9766 0.0000 0
M  V30 END ATOM
M  V30 BEGIN BOND
M  V30 1 1 1 2
M  V30 2 2 1 3
M  V30 3 1 1 10
M  V30 4 2 2 4
M  V30 5 1 2 12
M  V30 6 1 3 5
M  V30 7 1 3 11
M  V30 8 3 4 5
M  V30 9 1 4 8
M  V30 10 1 5 6
M  V30 11 1 6 9
M  V30 12 1 6 13
M  V30 13 1 7 8
M  V30 14 1 7 9
M  V30 15 1 7 14
M  V30 16 1 9 15
M  V30 END BOND
M  V30 END CTAB
M  END
>  <ID>
193
$$$$
Structure_194
Score 	 8.0, smilesprid 	smiles	 smilestrue 	smiles	 similartanimoto 	0	 similardice 	0

   15   16  0  0  0  0            999 V3000
M  V30 BEGIN CTAB
M  V30 COUNTS 15 16 0 0 0
M  V30 BEGIN ATOM
M  V30 1 C -2.5391 -0.1953 0.0000 0
M  V30 2 C -1.7578 -1.3672 0.0000 0
M  V30 3 C -1.7578 0.9766 0.0000 0
M  V30 4 C -0.3906 -0.7812 0.0000 0
M  V30 5 C -0.3906 0.5859 0.0000 0
M  V30 6 C 0.7812 1.1719 0.0000 0
M  V30 7 C 1.9531 -0.7812 0.0000 0
M  V30 8 N 0.7812 -1.5625 0.0000 0
M  V30 9 N 1.9531 0.3906 0.0000 0
M  V30 10 H -3.5156 -0.1953 0.0000 0
M  V30 11 H -2.1484 2.1484 0.0000 0
M  V30 12 H -1.9531 -2.3438 0.0000 0
M  V30 13 H 0.9766 2.3438 0.0000 0
M  V30 14 H 2.9297 -1.3672 0.0000 0
M  V30 15 H 2.7344 0.9766 0.0000 0
M  V30 END ATOM
M  V30 BEGIN BOND
M  V30 1 2 1 2
M  V30 2 2 1 3
M  V30 3 1 1 10
M  V30 4 2 2 4
M  V30 5 1 2 12
M  V30 6 1 3 5
M  V30 7 1 3 11
M  V30 8 3 4 5
M  V30 9 1 4 8
M  V30 10 1 5 6
M  V30 11 1 6 9
M  V30 12 1 6 13
M  V30 13 1 7 8
M  V30 14 1 7 9
M  V30 15 1 7 14
M  V30 16 1 9 15
M  V30 END BOND
M  V30 END CTAB
M  END
>  <ID>
194
$$$$
Structure_195
Score 	 10.0, smilesprid 	smiles	 smilestrue 	smiles	 similartanimoto 	0	 similardice 	0

   15   16  0  0  0  0            999 V3000
M  V30 BEGIN CTAB
M  V30 COUNTS 15 16 0 0 0
M  V30 BEGIN ATOM
M  V30 1 C -2.5391 -0.1953 0.0000 0
M  V30 2 C -1.7578 -1.3672 0.0000 0
M  V30 3 C -1.7578 0.9766 0.0000 0
M  V30 4 C -0.3906 -0.7812 0.0000 0
M  V30 5 C -0.3906 0.5859 0.0000 0
M  V30 6 C 0.7812 1.1719 0.0000 0
M  V30 7 C 1.9531 -0.7812 0.0000 0
M  V30 8 N 0.7812 -1.5625 0.0000 0
M  V30 9 N 1.9531 0.3906 0.0000 0
M  V30 10 H -3.5156 -0.1953 0.0000 0
M  V30 11 H -2.1484 2.1484 0.0000 0
M  V30 12 H -1.9531 -2.3438 0.0000 0
M  V30 13 H 0.9766 2.3438 0.0000 0
M  V30 14 H 2.9297 -1.3672 0.0000 0
M  V30 15 H 2.7344 0.9766 0.0000 0
M  V30 END ATOM
M  V30 BEGIN BOND
M  V30 1 3 1 2
M  V30 2 2 1 3
M  V30 3 1 1 10
M  V30 4 2 2 4
M  V30 5 1 2 12
M  V30 6 1 3 5
M  V30 7 1 3 11
M  V30 8 3 4 5
M  V30 9 1 4 8
M  V30 10 1 5 6
M  V30 11 1 6 9
M  V30 12 1 6 13
M  V30 13 1 7 8
M  V30 14 1 7 9
M  V30 15 1 7 14
M  V30 16 1 9 15
M  V30 END BOND
M  V30 END CTAB
M  END
>  <ID>
195
$$$$
Structure_196
Score 	 8.0, smilesprid 	smiles	 smilestrue 	smiles	 similartanimoto 	0	 similardice 	0

   15   16  0  0  0  0            999 V3000
M  V30 BEGIN CTAB
M  V30 COUNTS 15 16 0 0 0
M  V30 BEGIN ATOM
M  V30 1 C -2.5391 -0.1953 0.0000 0
M  V30 2 C -1.7578 -1.3672 0.0000 0
M  V30 3 C -1.7578 0.9766 0.0000 0
M  V30 4 C -0.3906 -0.7812 0.0000 0
M  V30 5 C -0.3906 0.5859 0.0000 0
M  V30 6 C 0.7812 1.1719 0.0000 0
M  V30 7 C 1.9531 -0.7812 0.0000 0
M  V30 8 N 0.7812 -1.5625 0.0000 0
M  V30 9 N 1.9531 0.3906 0.0000 0
M  V30 10 H -3.5156 -0.1953 0.0000 0
M  V30 11 H -2.1484 2.1484 0.0000 0
M  V30 12 H -1.9531 -2.3438 0.0000 0
M  V30 13 H 0.9766 2.3438 0.0000 0
M  V30 14 H 2.9297 -1.3672 0.0000 0
M  V30 15 H 2.7344 0.9766 0.0000 0
M  V30 END ATOM
M  V30 BEGIN BOND
M  V30 1 1 1 2
M  V30 2 3 1 3
M  V30 3 1 1 10
M  V30 4 2 2 4
M  V30 5 1 2 12
M  V30 6 1 3 5
M  V30 7 1 3 11
M  V30 8 3 4 5
M  V30 9 1 4 8
M  V30 10 1 5 6
M  V30 11 1 6 9
M  V30 12 1 6 13
M  V30 13 1 7 8
M  V30 14 1 7 9
M  V30 15 1 7 14
M  V30 16 1 9 15
M  V30 END BOND
M  V30 END CTAB
M  END
>  <ID>
196
$$$$
Structure_197
Score 	 10.0, smilesprid 	smiles	 smilestrue 	smiles	 similartanimoto 	0	 similardice 	0

   15   16  0  0  0  0            999 V3000
M  V30 BEGIN CTAB
M  V30 COUNTS 15 16 0 0 0
M  V30 BEGIN ATOM
M  V30 1 C -2.5391 -0.1953 0.0000 0
M  V30 2 C -1.7578 -1.3672 0.0000 0
M  V30 3 C -1.7578 0.9766 0.0000 0
M  V30 4 C -0.3906 -0.7812 0.0000 0
M  V30 5 C -0.3906 0.5859 0.0000 0
M  V30 6 C 0.7812 1.1719 0.0000 0
M  V30 7 C 1.9531 -0.7812 0.0000 0
M  V30 8 N 0.7812 -1.5625 0.0000 0
M  V30 9 N 1.9531 0.3906 0.0000 0
M  V30 10 H -3.5156 -0.1953 0.0000 0
M  V30 11 H -2.1484 2.1484 0.0000 0
M  V30 12 H -1.9531 -2.3438 0.0000 0
M  V30 13 H 0.9766 2.3438 0.0000 0
M  V30 14 H 2.9297 -1.3672 0.0000 0
M  V30 15 H 2.7344 0.9766 0.0000 0
M  V30 END ATOM
M  V30 BEGIN BOND
M  V30 1 2 1 2
M  V30 2 3 1 3
M  V30 3 1 1 10
M  V30 4 2 2 4
M  V30 5 1 2 12
M  V30 6 1 3 5
M  V30 7 1 3 11
M  V30 8 3 4 5
M  V30 9 1 4 8
M  V30 10 1 5 6
M  V30 11 1 6 9
M  V30 12 1 6 13
M  V30 13 1 7 8
M  V30 14 1 7 9
M  V30 15 1 7 14
M  V30 16 1 9 15
M  V30 END BOND
M  V30 END CTAB
M  END
>  <ID>
197
$$$$
Structure_198
Score 	 12.0, smilesprid 	smiles	 smilestrue 	smiles	 similartanimoto 	0	 similardice 	0

   15   16  0  0  0  0            999 V3000
M  V30 BEGIN CTAB
M  V30 COUNTS 15 16 0 0 0
M  V30 BEGIN ATOM
M  V30 1 C -2.5391 -0.1953 0.0000 0
M  V30 2 C -1.7578 -1.3672 0.0000 0
M  V30 3 C -1.7578 0.9766 0.0000 0
M  V30 4 C -0.3906 -0.7812 0.0000 0
M  V30 5 C -0.3906 0.5859 0.0000 0
M  V30 6 C 0.7812 1.1719 0.0000 0
M  V30 7 C 1.9531 -0.7812 0.0000 0
M  V30 8 N 0.7812 -1.5625 0.0000 0
M  V30 9 N 1.9531 0.3906 0.0000 0
M  V30 10 H -3.5156 -0.1953 0.0000 0
M  V30 11 H -2.1484 2.1484 0.0000 0
M  V30 12 H -1.9531 -2.3438 0.0000 0
M  V30 13 H 0.9766 2.3438 0.0000 0
M  V30 14 H 2.9297 -1.3672 0.0000 0
M  V30 15 H 2.7344 0.9766 0.0000 0
M  V30 END ATOM
M  V30 BEGIN BOND
M  V30 1 3 1 2
M  V30 2 3 1 3
M  V30 3 1 1 10
M  V30 4 2 2 4
M  V30 5 1 2 12
M  V30 6 1 3 5
M  V30 7 1 3 11
M  V30 8 3 4 5
M  V30 9 1 4 8
M  V30 10 1 5 6
M  V30 11 1 6 9
M  V30 12 1 6 13
M  V30 13 1 7 8
M  V30 14 1 7 9
M  V30 15 1 7 14
M  V30 16 1 9 15
M  V30 END BOND
M  V30 END CTAB
M  END
>  <ID>
198
$$$$
Structure_199
Score 	 8.0, smilesprid 	smiles	 smilestrue 	smiles	 similartanimoto 	0	 similardice 	0

   15   16  0  0  0  0            999 V3000
M  V30 BEGIN CTAB
M  V30 COUNTS 15 16 0 0 0
M  V30 BEGIN ATOM
M  V30 1 C -2.5391 -0.1953 0.0000 0
M  V30 2 C -1.7578 -1.3672 0.0000 0
M  V30 3 C -1.7578 0.9766 0.0000 0
M  V30 4 C -0.3906 -0.7812 0.0000 0
M  V30 5 C -0.3906 0.5859 0.0000 0
M  V30 6 C 0.7812 1.1719 0.0000 0
M  V30 7 C 1.9531 -0.7812 0.0000 0
M  V30 8 N 0.7812 -1.5625 0.0000 0
M  V30 9 N 1.9531 0.3906 0.0000 0
M  V30 10 H -3.5156 -0.1953 0.0000 0
M  V30 11 H -2.1484 2.1484 0.0000 0
M  V30 12 H -1.9531 -2.3438 0.0000 0
M  V30 13 H 0.9766 2.3438 0.0000 0
M  V30 14 H 2.9297 -1.3672 0.0000 0
M  V30 15 H 2.7344 0.9766 0.0000 0
M  V30 END ATOM
M  V30 BEGIN BOND
M  V30 1 1 1 2
M  V30 2 1 1 3
M  V30 3 1 1 10
M  V30 4 2 2 4
M  V30 5 1 2 12
M  V30 6 2 3 5
M  V30 7 1 3 11
M  V30 8 3 4 5
M  V30 9 1 4 8
M  V30 10 1 5 6
M  V30 11 1 6 9
M  V30 12 1 6 13
M  V30 13 1 7 8
M  V30 14 1 7 9
M  V30 15 1 7 14
M  V30 16 1 9 15
M  V30 END BOND
M  V30 END CTAB
M  END
>  <ID>
199
$$$$
Structure_200
Score 	 8.0, smilesprid 	smiles	 smilestrue 	smiles	 similartanimoto 	0	 similardice 	0

   15   16  0  0  0  0            999 V3000
M  V30 BEGIN CTAB
M  V30 COUNTS 15 16 0 0 0
M  V30 BEGIN ATOM
M  V30 1 C -2.5391 -0.1953 0.0000 0
M  V30 2 C -1.7578 -1.3672 0.0000 0
M  V30 3 C -1.7578 0.9766 0.0000 0
M  V30 4 C -0.3906 -0.7812 0.0000 0
M  V30 5 C -0.3906 0.5859 0.0000 0
M  V30 6 C 0.7812 1.1719 0.0000 0
M  V30 7 C 1.9531 -0.7812 0.0000 0
M  V30 8 N 0.7812 -1.5625 0.0000 0
M  V30 9 N 1.9531 0.3906 0.0000 0
M  V30 10 H -3.5156 -0.1953 0.0000 0
M  V30 11 H -2.1484 2.1484 0.0000 0
M  V30 12 H -1.9531 -2.3438 0.0000 0
M  V30 13 H 0.9766 2.3438 0.0000 0
M  V30 14 H 2.9297 -1.3672 0.0000 0
M  V30 15 H 2.7344 0.9766 0.0000 0
M  V30 END ATOM
M  V30 BEGIN BOND
M  V30 1 2 1 2
M  V30 2 1 1 3
M  V30 3 1 1 10
M  V30 4 2 2 4
M  V30 5 1 2 12
M  V30 6 2 3 5
M  V30 7 1 3 11
M  V30 8 3 4 5
M  V30 9 1 4 8
M  V30 10 1 5 6
M  V30 11 1 6 9
M  V30 12 1 6 13
M  V30 13 1 7 8
M  V30 14 1 7 9
M  V30 15 1 7 14
M  V30 16 1 9 15
M  V30 END BOND
M  V30 END CTAB
M  END
>  <ID>
200
$$$$
Structure_201
Score 	 10.0, smilesprid 	smiles	 smilestrue 	smiles	 similartanimoto 	0	 similardice 	0

   15   16  0  0  0  0            999 V3000
M  V30 BEGIN CTAB
M  V30 COUNTS 15 16 0 0 0
M  V30 BEGIN ATOM
M  V30 1 C -2.5391 -0.1953 0.0000 0
M  V30 2 C -1.7578 -1.3672 0.0000 0
M  V30 3 C -1.7578 0.9766 0.0000 0
M  V30 4 C -0.3906 -0.7812 0.0000 0
M  V30 5 C -0.3906 0.5859 0.0000 0
M  V30 6 C 0.7812 1.1719 0.0000 0
M  V30 7 C 1.9531 -0.7812 0.0000 0
M  V30 8 N 0.7812 -1.5625 0.0000 0
M  V30 9 N 1.9531 0.3906 0.0000 0
M  V30 10 H -3.5156 -0.1953 0.0000 0
M  V30 11 H -2.1484 2.1484 0.0000 0
M  V30 12 H -1.9531 -2.3438 0.0000 0
M  V30 13 H 0.9766 2.3438 0.0000 0
M  V30 14 H 2.9297 -1.3672 0.0000 0
M  V30 15 H 2.7344 0.9766 0.0000 0
M  V30 END ATOM
M  V30 BEGIN BOND
M  V30 1 3 1 2
M  V30 2 1 1 3
M  V30 3 1 1 10
M  V30 4 2 2 4
M  V30 5 1 2 12
M  V30 6 2 3 5
M  V30 7 1 3 11
M  V30 8 3 4 5
M  V30 9 1 4 8
M  V30 10 1 5 6
M  V30 11 1 6 9
M  V30 12 1 6 13
M  V30 13 1 7 8
M  V30 14 1 7 9
M  V30 15 1 7 14
M  V30 16 1 9 15
M  V30 END BOND
M  V30 END CTAB
M  END
>  <ID>
201
$$$$
Structure_202
Score 	 8.0, smilesprid 	smiles	 smilestrue 	smiles	 similartanimoto 	0	 similardice 	0

   15   16  0  0  0  0            999 V3000
M  V30 BEGIN CTAB
M  V30 COUNTS 15 16 0 0 0
M  V30 BEGIN ATOM
M  V30 1 C -2.5391 -0.1953 0.0000 0
M  V30 2 C -1.7578 -1.3672 0.0000 0
M  V30 3 C -1.7578 0.9766 0.0000 0
M  V30 4 C -0.3906 -0.7812 0.0000 0
M  V30 5 C -0.3906 0.5859 0.0000 0
M  V30 6 C 0.7812 1.1719 0.0000 0
M  V30 7 C 1.9531 -0.7812 0.0000 0
M  V30 8 N 0.7812 -1.5625 0.0000 0
M  V30 9 N 1.9531 0.3906 0.0000 0
M  V30 10 H -3.5156 -0.1953 0.0000 0
M  V30 11 H -2.1484 2.1484 0.0000 0
M  V30 12 H -1.9531 -2.3438 0.0000 0
M  V30 13 H 0.9766 2.3438 0.0000 0
M  V30 14 H 2.9297 -1.3672 0.0000 0
M  V30 15 H 2.7344 0.9766 0.0000 0
M  V30 END ATOM
M  V30 BEGIN BOND
M  V30 1 1 1 2
M  V30 2 2 1 3
M  V30 3 1 1 10
M  V30 4 2 2 4
M  V30 5 1 2 12
M  V30 6 2 3 5
M  V30 7 1 3 11
M  V30 8 3 4 5
M  V30 9 1 4 8
M  V30 10 1 5 6
M  V30 11 1 6 9
M  V30 12 1 6 13
M  V30 13 1 7 8
M  V30 14 1 7 9
M  V30 15 1 7 14
M  V30 16 1 9 15
M  V30 END BOND
M  V30 END CTAB
M  END
>  <ID>
202
$$$$
Structure_203
Score 	 10.0, smilesprid 	smiles	 smilestrue 	smiles	 similartanimoto 	0	 similardice 	0

   15   16  0  0  0  0            999 V3000
M  V30 BEGIN CTAB
M  V30 COUNTS 15 16 0 0 0
M  V30 BEGIN ATOM
M  V30 1 C -2.5391 -0.1953 0.0000 0
M  V30 2 C -1.7578 -1.3672 0.0000 0
M  V30 3 C -1.7578 0.9766 0.0000 0
M  V30 4 C -0.3906 -0.7812 0.0000 0
M  V30 5 C -0.3906 0.5859 0.0000 0
M  V30 6 C 0.7812 1.1719 0.0000 0
M  V30 7 C 1.9531 -0.7812 0.0000 0
M  V30 8 N 0.7812 -1.5625 0.0000 0
M  V30 9 N 1.9531 0.3906 0.0000 0
M  V30 10 H -3.5156 -0.1953 0.0000 0
M  V30 11 H -2.1484 2.1484 0.0000 0
M  V30 12 H -1.9531 -2.3438 0.0000 0
M  V30 13 H 0.9766 2.3438 0.0000 0
M  V30 14 H 2.9297 -1.3672 0.0000 0
M  V30 15 H 2.7344 0.9766 0.0000 0
M  V30 END ATOM
M  V30 BEGIN BOND
M  V30 1 2 1 2
M  V30 2 2 1 3
M  V30 3 1 1 10
M  V30 4 2 2 4
M  V30 5 1 2 12
M  V30 6 2 3 5
M  V30 7 1 3 11
M  V30 8 3 4 5
M  V30 9 1 4 8
M  V30 10 1 5 6
M  V30 11 1 6 9
M  V30 12 1 6 13
M  V30 13 1 7 8
M  V30 14 1 7 9
M  V30 15 1 7 14
M  V30 16 1 9 15
M  V30 END BOND
M  V30 END CTAB
M  END
>  <ID>
203
$$$$
Structure_204
Score 	 12.0, smilesprid 	smiles	 smilestrue 	smiles	 similartanimoto 	0	 similardice 	0

   15   16  0  0  0  0            999 V3000
M  V30 BEGIN CTAB
M  V30 COUNTS 15 16 0 0 0
M  V30 BEGIN ATOM
M  V30 1 C -2.5391 -0.1953 0.0000 0
M  V30 2 C -1.7578 -1.3672 0.0000 0
M  V30 3 C -1.7578 0.9766 0.0000 0
M  V30 4 C -0.3906 -0.7812 0.0000 0
M  V30 5 C -0.3906 0.5859 0.0000 0
M  V30 6 C 0.7812 1.1719 0.0000 0
M  V30 7 C 1.9531 -0.7812 0.0000 0
M  V30 8 N 0.7812 -1.5625 0.0000 0
M  V30 9 N 1.9531 0.3906 0.0000 0
M  V30 10 H -3.5156 -0.1953 0.0000 0
M  V30 11 H -2.1484 2.1484 0.0000 0
M  V30 12 H -1.9531 -2.3438 0.0000 0
M  V30 13 H 0.9766 2.3438 0.0000 0
M  V30 14 H 2.9297 -1.3672 0.0000 0
M  V30 15 H 2.7344 0.9766 0.0000 0
M  V30 END ATOM
M  V30 BEGIN BOND
M  V30 1 3 1 2
M  V30 2 2 1 3
M  V30 3 1 1 10
M  V30 4 2 2 4
M  V30 5 1 2 12
M  V30 6 2 3 5
M  V30 7 1 3 11
M  V30 8 3 4 5
M  V30 9 1 4 8
M  V30 10 1 5 6
M  V30 11 1 6 9
M  V30 12 1 6 13
M  V30 13 1 7 8
M  V30 14 1 7 9
M  V30 15 1 7 14
M  V30 16 1 9 15
M  V30 END BOND
M  V30 END CTAB
M  END
>  <ID>
204
$$$$
Structure_205
Score 	 10.0, smilesprid 	smiles	 smilestrue 	smiles	 similartanimoto 	0	 similardice 	0

   15   16  0  0  0  0            999 V3000
M  V30 BEGIN CTAB
M  V30 COUNTS 15 16 0 0 0
M  V30 BEGIN ATOM
M  V30 1 C -2.5391 -0.1953 0.0000 0
M  V30 2 C -1.7578 -1.3672 0.0000 0
M  V30 3 C -1.7578 0.9766 0.0000 0
M  V30 4 C -0.3906 -0.7812 0.0000 0
M  V30 5 C -0.3906 0.5859 0.0000 0
M  V30 6 C 0.7812 1.1719 0.0000 0
M  V30 7 C 1.9531 -0.7812 0.0000 0
M  V30 8 N 0.7812 -1.5625 0.0000 0
M  V30 9 N 1.9531 0.3906 0.0000 0
M  V30 10 H -3.5156 -0.1953 0.0000 0
M  V30 11 H -2.1484 2.1484 0.0000 0
M  V30 12 H -1.9531 -2.3438 0.0000 0
M  V30 13 H 0.9766 2.3438 0.0000 0
M  V30 14 H 2.9297 -1.3672 0.0000 0
M  V30 15 H 2.7344 0.9766 0.0000 0
M  V30 END ATOM
M  V30 BEGIN BOND
M  V30 1 1 1 2
M  V30 2 3 1 3
M  V30 3 1 1 10
M  V30 4 2 2 4
M  V30 5 1 2 12
M  V30 6 2 3 5
M  V30 7 1 3 11
M  V30 8 3 4 5
M  V30 9 1 4 8
M  V30 10 1 5 6
M  V30 11 1 6 9
M  V30 12 1 6 13
M  V30 13 1 7 8
M  V30 14 1 7 9
M  V30 15 1 7 14
M  V30 16 1 9 15
M  V30 END BOND
M  V30 END CTAB
M  END
>  <ID>
205
$$$$
Structure_206
Score 	 12.0, smilesprid 	smiles	 smilestrue 	smiles	 similartanimoto 	0	 similardice 	0

   15   16  0  0  0  0            999 V3000
M  V30 BEGIN CTAB
M  V30 COUNTS 15 16 0 0 0
M  V30 BEGIN ATOM
M  V30 1 C -2.5391 -0.1953 0.0000 0
M  V30 2 C -1.7578 -1.3672 0.0000 0
M  V30 3 C -1.7578 0.9766 0.0000 0
M  V30 4 C -0.3906 -0.7812 0.0000 0
M  V30 5 C -0.3906 0.5859 0.0000 0
M  V30 6 C 0.7812 1.1719 0.0000 0
M  V30 7 C 1.9531 -0.7812 0.0000 0
M  V30 8 N 0.7812 -1.5625 0.0000 0
M  V30 9 N 1.9531 0.3906 0.0000 0
M  V30 10 H -3.5156 -0.1953 0.0000 0
M  V30 11 H -2.1484 2.1484 0.0000 0
M  V30 12 H -1.9531 -2.3438 0.0000 0
M  V30 13 H 0.9766 2.3438 0.0000 0
M  V30 14 H 2.9297 -1.3672 0.0000 0
M  V30 15 H 2.7344 0.9766 0.0000 0
M  V30 END ATOM
M  V30 BEGIN BOND
M  V30 1 2 1 2
M  V30 2 3 1 3
M  V30 3 1 1 10
M  V30 4 2 2 4
M  V30 5 1 2 12
M  V30 6 2 3 5
M  V30 7 1 3 11
M  V30 8 3 4 5
M  V30 9 1 4 8
M  V30 10 1 5 6
M  V30 11 1 6 9
M  V30 12 1 6 13
M  V30 13 1 7 8
M  V30 14 1 7 9
M  V30 15 1 7 14
M  V30 16 1 9 15
M  V30 END BOND
M  V30 END CTAB
M  END
>  <ID>
206
$$$$
Structure_207
Score 	 14.0, smilesprid 	smiles	 smilestrue 	smiles	 similartanimoto 	0	 similardice 	0

   15   16  0  0  0  0            999 V3000
M  V30 BEGIN CTAB
M  V30 COUNTS 15 16 0 0 0
M  V30 BEGIN ATOM
M  V30 1 C -2.5391 -0.1953 0.0000 0
M  V30 2 C -1.7578 -1.3672 0.0000 0
M  V30 3 C -1.7578 0.9766 0.0000 0
M  V30 4 C -0.3906 -0.7812 0.0000 0
M  V30 5 C -0.3906 0.5859 0.0000 0
M  V30 6 C 0.7812 1.1719 0.0000 0
M  V30 7 C 1.9531 -0.7812 0.0000 0
M  V30 8 N 0.7812 -1.5625 0.0000 0
M  V30 9 N 1.9531 0.3906 0.0000 0
M  V30 10 H -3.5156 -0.1953 0.0000 0
M  V30 11 H -2.1484 2.1484 0.0000 0
M  V30 12 H -1.9531 -2.3438 0.0000 0
M  V30 13 H 0.9766 2.3438 0.0000 0
M  V30 14 H 2.9297 -1.3672 0.0000 0
M  V30 15 H 2.7344 0.9766 0.0000 0
M  V30 END ATOM
M  V30 BEGIN BOND
M  V30 1 3 1 2
M  V30 2 3 1 3
M  V30 3 1 1 10
M  V30 4 2 2 4
M  V30 5 1 2 12
M  V30 6 2 3 5
M  V30 7 1 3 11
M  V30 8 3 4 5
M  V30 9 1 4 8
M  V30 10 1 5 6
M  V30 11 1 6 9
M  V30 12 1 6 13
M  V30 13 1 7 8
M  V30 14 1 7 9
M  V30 15 1 7 14
M  V30 16 1 9 15
M  V30 END BOND
M  V30 END CTAB
M  END
>  <ID>
207
$$$$
Structure_208
Score 	 10.0, smilesprid 	smiles	 smilestrue 	smiles	 similartanimoto 	0	 similardice 	0

   15   16  0  0  0  0            999 V3000
M  V30 BEGIN CTAB
M  V30 COUNTS 15 16 0 0 0
M  V30 BEGIN ATOM
M  V30 1 C -2.5391 -0.1953 0.0000 0
M  V30 2 C -1.7578 -1.3672 0.0000 0
M  V30 3 C -1.7578 0.9766 0.0000 0
M  V30 4 C -0.3906 -0.7812 0.0000 0
M  V30 5 C -0.3906 0.5859 0.0000 0
M  V30 6 C 0.7812 1.1719 0.0000 0
M  V30 7 C 1.9531 -0.7812 0.0000 0
M  V30 8 N 0.7812 -1.5625 0.0000 0
M  V30 9 N 1.9531 0.3906 0.0000 0
M  V30 10 H -3.5156 -0.1953 0.0000 0
M  V30 11 H -2.1484 2.1484 0.0000 0
M  V30 12 H -1.9531 -2.3438 0.0000 0
M  V30 13 H 0.9766 2.3438 0.0000 0
M  V30 14 H 2.9297 -1.3672 0.0000 0
M  V30 15 H 2.7344 0.9766 0.0000 0
M  V30 END ATOM
M  V30 BEGIN BOND
M  V30 1 1 1 2
M  V30 2 1 1 3
M  V30 3 1 1 10
M  V30 4 2 2 4
M  V30 5 1 2 12
M  V30 6 3 3 5
M  V30 7 1 3 11
M  V30 8 3 4 5
M  V30 9 1 4 8
M  V30 10 1 5 6
M  V30 11 1 6 9
M  V30 12 1 6 13
M  V30 13 1 7 8
M  V30 14 1 7 9
M  V30 15 1 7 14
M  V30 16 1 9 15
M  V30 END BOND
M  V30 END CTAB
M  END
>  <ID>
208
$$$$
Structure_209
Score 	 10.0, smilesprid 	smiles	 smilestrue 	smiles	 similartanimoto 	0	 similardice 	0

   15   16  0  0  0  0            999 V3000
M  V30 BEGIN CTAB
M  V30 COUNTS 15 16 0 0 0
M  V30 BEGIN ATOM
M  V30 1 C -2.5391 -0.1953 0.0000 0
M  V30 2 C -1.7578 -1.3672 0.0000 0
M  V30 3 C -1.7578 0.9766 0.0000 0
M  V30 4 C -0.3906 -0.7812 0.0000 0
M  V30 5 C -0.3906 0.5859 0.0000 0
M  V30 6 C 0.7812 1.1719 0.0000 0
M  V30 7 C 1.9531 -0.7812 0.0000 0
M  V30 8 N 0.7812 -1.5625 0.0000 0
M  V30 9 N 1.9531 0.3906 0.0000 0
M  V30 10 H -3.5156 -0.1953 0.0000 0
M  V30 11 H -2.1484 2.1484 0.0000 0
M  V30 12 H -1.9531 -2.3438 0.0000 0
M  V30 13 H 0.9766 2.3438 0.0000 0
M  V30 14 H 2.9297 -1.3672 0.0000 0
M  V30 15 H 2.7344 0.9766 0.0000 0
M  V30 END ATOM
M  V30 BEGIN BOND
M  V30 1 2 1 2
M  V30 2 1 1 3
M  V30 3 1 1 10
M  V30 4 2 2 4
M  V30 5 1 2 12
M  V30 6 3 3 5
M  V30 7 1 3 11
M  V30 8 3 4 5
M  V30 9 1 4 8
M  V30 10 1 5 6
M  V30 11 1 6 9
M  V30 12 1 6 13
M  V30 13 1 7 8
M  V30 14 1 7 9
M  V30 15 1 7 14
M  V30 16 1 9 15
M  V30 END BOND
M  V30 END CTAB
M  END
>  <ID>
209
$$$$
Structure_210
Score 	 12.0, smilesprid 	smiles	 smilestrue 	smiles	 similartanimoto 	0	 similardice 	0

   15   16  0  0  0  0            999 V3000
M  V30 BEGIN CTAB
M  V30 COUNTS 15 16 0 0 0
M  V30 BEGIN ATOM
M  V30 1 C -2.5391 -0.1953 0.0000 0
M  V30 2 C -1.7578 -1.3672 0.0000 0
M  V30 3 C -1.7578 0.9766 0.0000 0
M  V30 4 C -0.3906 -0.7812 0.0000 0
M  V30 5 C -0.3906 0.5859 0.0000 0
M  V30 6 C 0.7812 1.1719 0.0000 0
M  V30 7 C 1.9531 -0.7812 0.0000 0
M  V30 8 N 0.7812 -1.5625 0.0000 0
M  V30 9 N 1.9531 0.3906 0.0000 0
M  V30 10 H -3.5156 -0.1953 0.0000 0
M  V30 11 H -2.1484 2.1484 0.0000 0
M  V30 12 H -1.9531 -2.3438 0.0000 0
M  V30 13 H 0.9766 2.3438 0.0000 0
M  V30 14 H 2.9297 -1.3672 0.0000 0
M  V30 15 H 2.7344 0.9766 0.0000 0
M  V30 END ATOM
M  V30 BEGIN BOND
M  V30 1 3 1 2
M  V30 2 1 1 3
M  V30 3 1 1 10
M  V30 4 2 2 4
M  V30 5 1 2 12
M  V30 6 3 3 5
M  V30 7 1 3 11
M  V30 8 3 4 5
M  V30 9 1 4 8
M  V30 10 1 5 6
M  V30 11 1 6 9
M  V30 12 1 6 13
M  V30 13 1 7 8
M  V30 14 1 7 9
M  V30 15 1 7 14
M  V30 16 1 9 15
M  V30 END BOND
M  V30 END CTAB
M  END
>  <ID>
210
$$$$
Structure_211
Score 	 10.0, smilesprid 	smiles	 smilestrue 	smiles	 similartanimoto 	0	 similardice 	0

   15   16  0  0  0  0            999 V3000
M  V30 BEGIN CTAB
M  V30 COUNTS 15 16 0 0 0
M  V30 BEGIN ATOM
M  V30 1 C -2.5391 -0.1953 0.0000 0
M  V30 2 C -1.7578 -1.3672 0.0000 0
M  V30 3 C -1.7578 0.9766 0.0000 0
M  V30 4 C -0.3906 -0.7812 0.0000 0
M  V30 5 C -0.3906 0.5859 0.0000 0
M  V30 6 C 0.7812 1.1719 0.0000 0
M  V30 7 C 1.9531 -0.7812 0.0000 0
M  V30 8 N 0.7812 -1.5625 0.0000 0
M  V30 9 N 1.9531 0.3906 0.0000 0
M  V30 10 H -3.5156 -0.1953 0.0000 0
M  V30 11 H -2.1484 2.1484 0.0000 0
M  V30 12 H -1.9531 -2.3438 0.0000 0
M  V30 13 H 0.9766 2.3438 0.0000 0
M  V30 14 H 2.9297 -1.3672 0.0000 0
M  V30 15 H 2.7344 0.9766 0.0000 0
M  V30 END ATOM
M  V30 BEGIN BOND
M  V30 1 1 1 2
M  V30 2 2 1 3
M  V30 3 1 1 10
M  V30 4 2 2 4
M  V30 5 1 2 12
M  V30 6 3 3 5
M  V30 7 1 3 11
M  V30 8 3 4 5
M  V30 9 1 4 8
M  V30 10 1 5 6
M  V30 11 1 6 9
M  V30 12 1 6 13
M  V30 13 1 7 8
M  V30 14 1 7 9
M  V30 15 1 7 14
M  V30 16 1 9 15
M  V30 END BOND
M  V30 END CTAB
M  END
>  <ID>
211
$$$$
Structure_212
Score 	 12.0, smilesprid 	smiles	 smilestrue 	smiles	 similartanimoto 	0	 similardice 	0

   15   16  0  0  0  0            999 V3000
M  V30 BEGIN CTAB
M  V30 COUNTS 15 16 0 0 0
M  V30 BEGIN ATOM
M  V30 1 C -2.5391 -0.1953 0.0000 0
M  V30 2 C -1.7578 -1.3672 0.0000 0
M  V30 3 C -1.7578 0.9766 0.0000 0
M  V30 4 C -0.3906 -0.7812 0.0000 0
M  V30 5 C -0.3906 0.5859 0.0000 0
M  V30 6 C 0.7812 1.1719 0.0000 0
M  V30 7 C 1.9531 -0.7812 0.0000 0
M  V30 8 N 0.7812 -1.5625 0.0000 0
M  V30 9 N 1.9531 0.3906 0.0000 0
M  V30 10 H -3.5156 -0.1953 0.0000 0
M  V30 11 H -2.1484 2.1484 0.0000 0
M  V30 12 H -1.9531 -2.3438 0.0000 0
M  V30 13 H 0.9766 2.3438 0.0000 0
M  V30 14 H 2.9297 -1.3672 0.0000 0
M  V30 15 H 2.7344 0.9766 0.0000 0
M  V30 END ATOM
M  V30 BEGIN BOND
M  V30 1 2 1 2
M  V30 2 2 1 3
M  V30 3 1 1 10
M  V30 4 2 2 4
M  V30 5 1 2 12
M  V30 6 3 3 5
M  V30 7 1 3 11
M  V30 8 3 4 5
M  V30 9 1 4 8
M  V30 10 1 5 6
M  V30 11 1 6 9
M  V30 12 1 6 13
M  V30 13 1 7 8
M  V30 14 1 7 9
M  V30 15 1 7 14
M  V30 16 1 9 15
M  V30 END BOND
M  V30 END CTAB
M  END
>  <ID>
212
$$$$
Structure_213
Score 	 14.0, smilesprid 	smiles	 smilestrue 	smiles	 similartanimoto 	0	 similardice 	0

   15   16  0  0  0  0            999 V3000
M  V30 BEGIN CTAB
M  V30 COUNTS 15 16 0 0 0
M  V30 BEGIN ATOM
M  V30 1 C -2.5391 -0.1953 0.0000 0
M  V30 2 C -1.7578 -1.3672 0.0000 0
M  V30 3 C -1.7578 0.9766 0.0000 0
M  V30 4 C -0.3906 -0.7812 0.0000 0
M  V30 5 C -0.3906 0.5859 0.0000 0
M  V30 6 C 0.7812 1.1719 0.0000 0
M  V30 7 C 1.9531 -0.7812 0.0000 0
M  V30 8 N 0.7812 -1.5625 0.0000 0
M  V30 9 N 1.9531 0.3906 0.0000 0
M  V30 10 H -3.5156 -0.1953 0.0000 0
M  V30 11 H -2.1484 2.1484 0.0000 0
M  V30 12 H -1.9531 -2.3438 0.0000 0
M  V30 13 H 0.9766 2.3438 0.0000 0
M  V30 14 H 2.9297 -1.3672 0.0000 0
M  V30 15 H 2.7344 0.9766 0.0000 0
M  V30 END ATOM
M  V30 BEGIN BOND
M  V30 1 3 1 2
M  V30 2 2 1 3
M  V30 3 1 1 10
M  V30 4 2 2 4
M  V30 5 1 2 12
M  V30 6 3 3 5
M  V30 7 1 3 11
M  V30 8 3 4 5
M  V30 9 1 4 8
M  V30 10 1 5 6
M  V30 11 1 6 9
M  V30 12 1 6 13
M  V30 13 1 7 8
M  V30 14 1 7 9
M  V30 15 1 7 14
M  V30 16 1 9 15
M  V30 END BOND
M  V30 END CTAB
M  END
>  <ID>
213
$$$$
Structure_214
Score 	 12.0, smilesprid 	smiles	 smilestrue 	smiles	 similartanimoto 	0	 similardice 	0

   15   16  0  0  0  0            999 V3000
M  V30 BEGIN CTAB
M  V30 COUNTS 15 16 0 0 0
M  V30 BEGIN ATOM
M  V30 1 C -2.5391 -0.1953 0.0000 0
M  V30 2 C -1.7578 -1.3672 0.0000 0
M  V30 3 C -1.7578 0.9766 0.0000 0
M  V30 4 C -0.3906 -0.7812 0.0000 0
M  V30 5 C -0.3906 0.5859 0.0000 0
M  V30 6 C 0.7812 1.1719 0.0000 0
M  V30 7 C 1.9531 -0.7812 0.0000 0
M  V30 8 N 0.7812 -1.5625 0.0000 0
M  V30 9 N 1.9531 0.3906 0.0000 0
M  V30 10 H -3.5156 -0.1953 0.0000 0
M  V30 11 H -2.1484 2.1484 0.0000 0
M  V30 12 H -1.9531 -2.3438 0.0000 0
M  V30 13 H 0.9766 2.3438 0.0000 0
M  V30 14 H 2.9297 -1.3672 0.0000 0
M  V30 15 H 2.7344 0.9766 0.0000 0
M  V30 END ATOM
M  V30 BEGIN BOND
M  V30 1 1 1 2
M  V30 2 3 1 3
M  V30 3 1 1 10
M  V30 4 2 2 4
M  V30 5 1 2 12
M  V30 6 3 3 5
M  V30 7 1 3 11
M  V30 8 3 4 5
M  V30 9 1 4 8
M  V30 10 1 5 6
M  V30 11 1 6 9
M  V30 12 1 6 13
M  V30 13 1 7 8
M  V30 14 1 7 9
M  V30 15 1 7 14
M  V30 16 1 9 15
M  V30 END BOND
M  V30 END CTAB
M  END
>  <ID>
214
$$$$
Structure_215
Score 	 14.0, smilesprid 	smiles	 smilestrue 	smiles	 similartanimoto 	0	 similardice 	0

   15   16  0  0  0  0            999 V3000
M  V30 BEGIN CTAB
M  V30 COUNTS 15 16 0 0 0
M  V30 BEGIN ATOM
M  V30 1 C -2.5391 -0.1953 0.0000 0
M  V30 2 C -1.7578 -1.3672 0.0000 0
M  V30 3 C -1.7578 0.9766 0.0000 0
M  V30 4 C -0.3906 -0.7812 0.0000 0
M  V30 5 C -0.3906 0.5859 0.0000 0
M  V30 6 C 0.7812 1.1719 0.0000 0
M  V30 7 C 1.9531 -0.7812 0.0000 0
M  V30 8 N 0.7812 -1.5625 0.0000 0
M  V30 9 N 1.9531 0.3906 0.0000 0
M  V30 10 H -3.5156 -0.1953 0.0000 0
M  V30 11 H -2.1484 2.1484 0.0000 0
M  V30 12 H -1.9531 -2.3438 0.0000 0
M  V30 13 H 0.9766 2.3438 0.0000 0
M  V30 14 H 2.9297 -1.3672 0.0000 0
M  V30 15 H 2.7344 0.9766 0.0000 0
M  V30 END ATOM
M  V30 BEGIN BOND
M  V30 1 2 1 2
M  V30 2 3 1 3
M  V30 3 1 1 10
M  V30 4 2 2 4
M  V30 5 1 2 12
M  V30 6 3 3 5
M  V30 7 1 3 11
M  V30 8 3 4 5
M  V30 9 1 4 8
M  V30 10 1 5 6
M  V30 11 1 6 9
M  V30 12 1 6 13
M  V30 13 1 7 8
M  V30 14 1 7 9
M  V30 15 1 7 14
M  V30 16 1 9 15
M  V30 END BOND
M  V30 END CTAB
M  END
>  <ID>
215
$$$$
Structure_216
Score 	 16.0, smilesprid 	smiles	 smilestrue 	smiles	 similartanimoto 	0	 similardice 	0

   15   16  0  0  0  0            999 V3000
M  V30 BEGIN CTAB
M  V30 COUNTS 15 16 0 0 0
M  V30 BEGIN ATOM
M  V30 1 C -2.5391 -0.1953 0.0000 0
M  V30 2 C -1.7578 -1.3672 0.0000 0
M  V30 3 C -1.7578 0.9766 0.0000 0
M  V30 4 C -0.3906 -0.7812 0.0000 0
M  V30 5 C -0.3906 0.5859 0.0000 0
M  V30 6 C 0.7812 1.1719 0.0000 0
M  V30 7 C 1.9531 -0.7812 0.0000 0
M  V30 8 N 0.7812 -1.5625 0.0000 0
M  V30 9 N 1.9531 0.3906 0.0000 0
M  V30 10 H -3.5156 -0.1953 0.0000 0
M  V30 11 H -2.1484 2.1484 0.0000 0
M  V30 12 H -1.9531 -2.3438 0.0000 0
M  V30 13 H 0.9766 2.3438 0.0000 0
M  V30 14 H 2.9297 -1.3672 0.0000 0
M  V30 15 H 2.7344 0.9766 0.0000 0
M  V30 END ATOM
M  V30 BEGIN BOND
M  V30 1 3 1 2
M  V30 2 3 1 3
M  V30 3 1 1 10
M  V30 4 2 2 4
M  V30 5 1 2 12
M  V30 6 3 3 5
M  V30 7 1 3 11
M  V30 8 3 4 5
M  V30 9 1 4 8
M  V30 10 1 5 6
M  V30 11 1 6 9
M  V30 12 1 6 13
M  V30 13 1 7 8
M  V30 14 1 7 9
M  V30 15 1 7 14
M  V30 16 1 9 15
M  V30 END BOND
M  V30 END CTAB
M  END
>  <ID>
216
$$$$
Structure_217
Score 	 10.0, smilesprid 	smiles	 smilestrue 	smiles	 similartanimoto 	0	 similardice 	0

   15   16  0  0  0  0            999 V3000
M  V30 BEGIN CTAB
M  V30 COUNTS 15 16 0 0 0
M  V30 BEGIN ATOM
M  V30 1 C -2.5391 -0.1953 0.0000 0
M  V30 2 C -1.7578 -1.3672 0.0000 0
M  V30 3 C -1.7578 0.9766 0.0000 0
M  V30 4 C -0.3906 -0.7812 0.0000 0
M  V30 5 C -0.3906 0.5859 0.0000 0
M  V30 6 C 0.7812 1.1719 0.0000 0
M  V30 7 C 1.9531 -0.7812 0.0000 0
M  V30 8 N 0.7812 -1.5625 0.0000 0
M  V30 9 N 1.9531 0.3906 0.0000 0
M  V30 10 H -3.5156 -0.1953 0.0000 0
M  V30 11 H -2.1484 2.1484 0.0000 0
M  V30 12 H -1.9531 -2.3438 0.0000 0
M  V30 13 H 0.9766 2.3438 0.0000 0
M  V30 14 H 2.9297 -1.3672 0.0000 0
M  V30 15 H 2.7344 0.9766 0.0000 0
M  V30 END ATOM
M  V30 BEGIN BOND
M  V30 1 1 1 2
M  V30 2 1 1 3
M  V30 3 1 1 10
M  V30 4 3 2 4
M  V30 5 1 2 12
M  V30 6 1 3 5
M  V30 7 1 3 11
M  V30 8 3 4 5
M  V30 9 1 4 8
M  V30 10 1 5 6
M  V30 11 1 6 9
M  V30 12 1 6 13
M  V30 13 1 7 8
M  V30 14 1 7 9
M  V30 15 1 7 14
M  V30 16 1 9 15
M  V30 END BOND
M  V30 END CTAB
M  END
>  <ID>
217
$$$$
Structure_218
Score 	 10.0, smilesprid 	smiles	 smilestrue 	smiles	 similartanimoto 	0	 similardice 	0

   15   16  0  0  0  0            999 V3000
M  V30 BEGIN CTAB
M  V30 COUNTS 15 16 0 0 0
M  V30 BEGIN ATOM
M  V30 1 C -2.5391 -0.1953 0.0000 0
M  V30 2 C -1.7578 -1.3672 0.0000 0
M  V30 3 C -1.7578 0.9766 0.0000 0
M  V30 4 C -0.3906 -0.7812 0.0000 0
M  V30 5 C -0.3906 0.5859 0.0000 0
M  V30 6 C 0.7812 1.1719 0.0000 0
M  V30 7 C 1.9531 -0.7812 0.0000 0
M  V30 8 N 0.7812 -1.5625 0.0000 0
M  V30 9 N 1.9531 0.3906 0.0000 0
M  V30 10 H -3.5156 -0.1953 0.0000 0
M  V30 11 H -2.1484 2.1484 0.0000 0
M  V30 12 H -1.9531 -2.3438 0.0000 0
M  V30 13 H 0.9766 2.3438 0.0000 0
M  V30 14 H 2.9297 -1.3672 0.0000 0
M  V30 15 H 2.7344 0.9766 0.0000 0
M  V30 END ATOM
M  V30 BEGIN BOND
M  V30 1 2 1 2
M  V30 2 1 1 3
M  V30 3 1 1 10
M  V30 4 3 2 4
M  V30 5 1 2 12
M  V30 6 1 3 5
M  V30 7 1 3 11
M  V30 8 3 4 5
M  V30 9 1 4 8
M  V30 10 1 5 6
M  V30 11 1 6 9
M  V30 12 1 6 13
M  V30 13 1 7 8
M  V30 14 1 7 9
M  V30 15 1 7 14
M  V30 16 1 9 15
M  V30 END BOND
M  V30 END CTAB
M  END
>  <ID>
218
$$$$
Structure_219
Score 	 12.0, smilesprid 	smiles	 smilestrue 	smiles	 similartanimoto 	0	 similardice 	0

   15   16  0  0  0  0            999 V3000
M  V30 BEGIN CTAB
M  V30 COUNTS 15 16 0 0 0
M  V30 BEGIN ATOM
M  V30 1 C -2.5391 -0.1953 0.0000 0
M  V30 2 C -1.7578 -1.3672 0.0000 0
M  V30 3 C -1.7578 0.9766 0.0000 0
M  V30 4 C -0.3906 -0.7812 0.0000 0
M  V30 5 C -0.3906 0.5859 0.0000 0
M  V30 6 C 0.7812 1.1719 0.0000 0
M  V30 7 C 1.9531 -0.7812 0.0000 0
M  V30 8 N 0.7812 -1.5625 0.0000 0
M  V30 9 N 1.9531 0.3906 0.0000 0
M  V30 10 H -3.5156 -0.1953 0.0000 0
M  V30 11 H -2.1484 2.1484 0.0000 0
M  V30 12 H -1.9531 -2.3438 0.0000 0
M  V30 13 H 0.9766 2.3438 0.0000 0
M  V30 14 H 2.9297 -1.3672 0.0000 0
M  V30 15 H 2.7344 0.9766 0.0000 0
M  V30 END ATOM
M  V30 BEGIN BOND
M  V30 1 3 1 2
M  V30 2 1 1 3
M  V30 3 1 1 10
M  V30 4 3 2 4
M  V30 5 1 2 12
M  V30 6 1 3 5
M  V30 7 1 3 11
M  V30 8 3 4 5
M  V30 9 1 4 8
M  V30 10 1 5 6
M  V30 11 1 6 9
M  V30 12 1 6 13
M  V30 13 1 7 8
M  V30 14 1 7 9
M  V30 15 1 7 14
M  V30 16 1 9 15
M  V30 END BOND
M  V30 END CTAB
M  END
>  <ID>
219
$$$$
Structure_220
Score 	 8.0, smilesprid 	smiles	 smilestrue 	smiles	 similartanimoto 	0	 similardice 	0

   15   16  0  0  0  0            999 V3000
M  V30 BEGIN CTAB
M  V30 COUNTS 15 16 0 0 0
M  V30 BEGIN ATOM
M  V30 1 C -2.5391 -0.1953 0.0000 0
M  V30 2 C -1.7578 -1.3672 0.0000 0
M  V30 3 C -1.7578 0.9766 0.0000 0
M  V30 4 C -0.3906 -0.7812 0.0000 0
M  V30 5 C -0.3906 0.5859 0.0000 0
M  V30 6 C 0.7812 1.1719 0.0000 0
M  V30 7 C 1.9531 -0.7812 0.0000 0
M  V30 8 N 0.7812 -1.5625 0.0000 0
M  V30 9 N 1.9531 0.3906 0.0000 0
M  V30 10 H -3.5156 -0.1953 0.0000 0
M  V30 11 H -2.1484 2.1484 0.0000 0
M  V30 12 H -1.9531 -2.3438 0.0000 0
M  V30 13 H 0.9766 2.3438 0.0000 0
M  V30 14 H 2.9297 -1.3672 0.0000 0
M  V30 15 H 2.7344 0.9766 0.0000 0
M  V30 END ATOM
M  V30 BEGIN BOND
M  V30 1 1 1 2
M  V30 2 2 1 3
M  V30 3 1 1 10
M  V30 4 3 2 4
M  V30 5 1 2 12
M  V30 6 1 3 5
M  V30 7 1 3 11
M  V30 8 3 4 5
M  V30 9 1 4 8
M  V30 10 1 5 6
M  V30 11 1 6 9
M  V30 12 1 6 13
M  V30 13 1 7 8
M  V30 14 1 7 9
M  V30 15 1 7 14
M  V30 16 1 9 15
M  V30 END BOND
M  V30 END CTAB
M  END
>  <ID>
220
$$$$
Structure_221
Score 	 10.0, smilesprid 	smiles	 smilestrue 	smiles	 similartanimoto 	0	 similardice 	0

   15   16  0  0  0  0            999 V3000
M  V30 BEGIN CTAB
M  V30 COUNTS 15 16 0 0 0
M  V30 BEGIN ATOM
M  V30 1 C -2.5391 -0.1953 0.0000 0
M  V30 2 C -1.7578 -1.3672 0.0000 0
M  V30 3 C -1.7578 0.9766 0.0000 0
M  V30 4 C -0.3906 -0.7812 0.0000 0
M  V30 5 C -0.3906 0.5859 0.0000 0
M  V30 6 C 0.7812 1.1719 0.0000 0
M  V30 7 C 1.9531 -0.7812 0.0000 0
M  V30 8 N 0.7812 -1.5625 0.0000 0
M  V30 9 N 1.9531 0.3906 0.0000 0
M  V30 10 H -3.5156 -0.1953 0.0000 0
M  V30 11 H -2.1484 2.1484 0.0000 0
M  V30 12 H -1.9531 -2.3438 0.0000 0
M  V30 13 H 0.9766 2.3438 0.0000 0
M  V30 14 H 2.9297 -1.3672 0.0000 0
M  V30 15 H 2.7344 0.9766 0.0000 0
M  V30 END ATOM
M  V30 BEGIN BOND
M  V30 1 2 1 2
M  V30 2 2 1 3
M  V30 3 1 1 10
M  V30 4 3 2 4
M  V30 5 1 2 12
M  V30 6 1 3 5
M  V30 7 1 3 11
M  V30 8 3 4 5
M  V30 9 1 4 8
M  V30 10 1 5 6
M  V30 11 1 6 9
M  V30 12 1 6 13
M  V30 13 1 7 8
M  V30 14 1 7 9
M  V30 15 1 7 14
M  V30 16 1 9 15
M  V30 END BOND
M  V30 END CTAB
M  END
>  <ID>
221
$$$$
Structure_222
Score 	 12.0, smilesprid 	smiles	 smilestrue 	smiles	 similartanimoto 	0	 similardice 	0

   15   16  0  0  0  0            999 V3000
M  V30 BEGIN CTAB
M  V30 COUNTS 15 16 0 0 0
M  V30 BEGIN ATOM
M  V30 1 C -2.5391 -0.1953 0.0000 0
M  V30 2 C -1.7578 -1.3672 0.0000 0
M  V30 3 C -1.7578 0.9766 0.0000 0
M  V30 4 C -0.3906 -0.7812 0.0000 0
M  V30 5 C -0.3906 0.5859 0.0000 0
M  V30 6 C 0.7812 1.1719 0.0000 0
M  V30 7 C 1.9531 -0.7812 0.0000 0
M  V30 8 N 0.7812 -1.5625 0.0000 0
M  V30 9 N 1.9531 0.3906 0.0000 0
M  V30 10 H -3.5156 -0.1953 0.0000 0
M  V30 11 H -2.1484 2.1484 0.0000 0
M  V30 12 H -1.9531 -2.3438 0.0000 0
M  V30 13 H 0.9766 2.3438 0.0000 0
M  V30 14 H 2.9297 -1.3672 0.0000 0
M  V30 15 H 2.7344 0.9766 0.0000 0
M  V30 END ATOM
M  V30 BEGIN BOND
M  V30 1 3 1 2
M  V30 2 2 1 3
M  V30 3 1 1 10
M  V30 4 3 2 4
M  V30 5 1 2 12
M  V30 6 1 3 5
M  V30 7 1 3 11
M  V30 8 3 4 5
M  V30 9 1 4 8
M  V30 10 1 5 6
M  V30 11 1 6 9
M  V30 12 1 6 13
M  V30 13 1 7 8
M  V30 14 1 7 9
M  V30 15 1 7 14
M  V30 16 1 9 15
M  V30 END BOND
M  V30 END CTAB
M  END
>  <ID>
222
$$$$
Structure_223
Score 	 10.0, smilesprid 	smiles	 smilestrue 	smiles	 similartanimoto 	0	 similardice 	0

   15   16  0  0  0  0            999 V3000
M  V30 BEGIN CTAB
M  V30 COUNTS 15 16 0 0 0
M  V30 BEGIN ATOM
M  V30 1 C -2.5391 -0.1953 0.0000 0
M  V30 2 C -1.7578 -1.3672 0.0000 0
M  V30 3 C -1.7578 0.9766 0.0000 0
M  V30 4 C -0.3906 -0.7812 0.0000 0
M  V30 5 C -0.3906 0.5859 0.0000 0
M  V30 6 C 0.7812 1.1719 0.0000 0
M  V30 7 C 1.9531 -0.7812 0.0000 0
M  V30 8 N 0.7812 -1.5625 0.0000 0
M  V30 9 N 1.9531 0.3906 0.0000 0
M  V30 10 H -3.5156 -0.1953 0.0000 0
M  V30 11 H -2.1484 2.1484 0.0000 0
M  V30 12 H -1.9531 -2.3438 0.0000 0
M  V30 13 H 0.9766 2.3438 0.0000 0
M  V30 14 H 2.9297 -1.3672 0.0000 0
M  V30 15 H 2.7344 0.9766 0.0000 0
M  V30 END ATOM
M  V30 BEGIN BOND
M  V30 1 1 1 2
M  V30 2 3 1 3
M  V30 3 1 1 10
M  V30 4 3 2 4
M  V30 5 1 2 12
M  V30 6 1 3 5
M  V30 7 1 3 11
M  V30 8 3 4 5
M  V30 9 1 4 8
M  V30 10 1 5 6
M  V30 11 1 6 9
M  V30 12 1 6 13
M  V30 13 1 7 8
M  V30 14 1 7 9
M  V30 15 1 7 14
M  V30 16 1 9 15
M  V30 END BOND
M  V30 END CTAB
M  END
>  <ID>
223
$$$$
Structure_224
Score 	 12.0, smilesprid 	smiles	 smilestrue 	smiles	 similartanimoto 	0	 similardice 	0

   15   16  0  0  0  0            999 V3000
M  V30 BEGIN CTAB
M  V30 COUNTS 15 16 0 0 0
M  V30 BEGIN ATOM
M  V30 1 C -2.5391 -0.1953 0.0000 0
M  V30 2 C -1.7578 -1.3672 0.0000 0
M  V30 3 C -1.7578 0.9766 0.0000 0
M  V30 4 C -0.3906 -0.7812 0.0000 0
M  V30 5 C -0.3906 0.5859 0.0000 0
M  V30 6 C 0.7812 1.1719 0.0000 0
M  V30 7 C 1.9531 -0.7812 0.0000 0
M  V30 8 N 0.7812 -1.5625 0.0000 0
M  V30 9 N 1.9531 0.3906 0.0000 0
M  V30 10 H -3.5156 -0.1953 0.0000 0
M  V30 11 H -2.1484 2.1484 0.0000 0
M  V30 12 H -1.9531 -2.3438 0.0000 0
M  V30 13 H 0.9766 2.3438 0.0000 0
M  V30 14 H 2.9297 -1.3672 0.0000 0
M  V30 15 H 2.7344 0.9766 0.0000 0
M  V30 END ATOM
M  V30 BEGIN BOND
M  V30 1 2 1 2
M  V30 2 3 1 3
M  V30 3 1 1 10
M  V30 4 3 2 4
M  V30 5 1 2 12
M  V30 6 1 3 5
M  V30 7 1 3 11
M  V30 8 3 4 5
M  V30 9 1 4 8
M  V30 10 1 5 6
M  V30 11 1 6 9
M  V30 12 1 6 13
M  V30 13 1 7 8
M  V30 14 1 7 9
M  V30 15 1 7 14
M  V30 16 1 9 15
M  V30 END BOND
M  V30 END CTAB
M  END
>  <ID>
224
$$$$
Structure_225
Score 	 14.0, smilesprid 	smiles	 smilestrue 	smiles	 similartanimoto 	0	 similardice 	0

   15   16  0  0  0  0            999 V3000
M  V30 BEGIN CTAB
M  V30 COUNTS 15 16 0 0 0
M  V30 BEGIN ATOM
M  V30 1 C -2.5391 -0.1953 0.0000 0
M  V30 2 C -1.7578 -1.3672 0.0000 0
M  V30 3 C -1.7578 0.9766 0.0000 0
M  V30 4 C -0.3906 -0.7812 0.0000 0
M  V30 5 C -0.3906 0.5859 0.0000 0
M  V30 6 C 0.7812 1.1719 0.0000 0
M  V30 7 C 1.9531 -0.7812 0.0000 0
M  V30 8 N 0.7812 -1.5625 0.0000 0
M  V30 9 N 1.9531 0.3906 0.0000 0
M  V30 10 H -3.5156 -0.1953 0.0000 0
M  V30 11 H -2.1484 2.1484 0.0000 0
M  V30 12 H -1.9531 -2.3438 0.0000 0
M  V30 13 H 0.9766 2.3438 0.0000 0
M  V30 14 H 2.9297 -1.3672 0.0000 0
M  V30 15 H 2.7344 0.9766 0.0000 0
M  V30 END ATOM
M  V30 BEGIN BOND
M  V30 1 3 1 2
M  V30 2 3 1 3
M  V30 3 1 1 10
M  V30 4 3 2 4
M  V30 5 1 2 12
M  V30 6 1 3 5
M  V30 7 1 3 11
M  V30 8 3 4 5
M  V30 9 1 4 8
M  V30 10 1 5 6
M  V30 11 1 6 9
M  V30 12 1 6 13
M  V30 13 1 7 8
M  V30 14 1 7 9
M  V30 15 1 7 14
M  V30 16 1 9 15
M  V30 END BOND
M  V30 END CTAB
M  END
>  <ID>
225
$$$$
Structure_226
Score 	 10.0, smilesprid 	smiles	 smilestrue 	smiles	 similartanimoto 	0	 similardice 	0

   15   16  0  0  0  0            999 V3000
M  V30 BEGIN CTAB
M  V30 COUNTS 15 16 0 0 0
M  V30 BEGIN ATOM
M  V30 1 C -2.5391 -0.1953 0.0000 0
M  V30 2 C -1.7578 -1.3672 0.0000 0
M  V30 3 C -1.7578 0.9766 0.0000 0
M  V30 4 C -0.3906 -0.7812 0.0000 0
M  V30 5 C -0.3906 0.5859 0.0000 0
M  V30 6 C 0.7812 1.1719 0.0000 0
M  V30 7 C 1.9531 -0.7812 0.0000 0
M  V30 8 N 0.7812 -1.5625 0.0000 0
M  V30 9 N 1.9531 0.3906 0.0000 0
M  V30 10 H -3.5156 -0.1953 0.0000 0
M  V30 11 H -2.1484 2.1484 0.0000 0
M  V30 12 H -1.9531 -2.3438 0.0000 0
M  V30 13 H 0.9766 2.3438 0.0000 0
M  V30 14 H 2.9297 -1.3672 0.0000 0
M  V30 15 H 2.7344 0.9766 0.0000 0
M  V30 END ATOM
M  V30 BEGIN BOND
M  V30 1 1 1 2
M  V30 2 1 1 3
M  V30 3 1 1 10
M  V30 4 3 2 4
M  V30 5 1 2 12
M  V30 6 2 3 5
M  V30 7 1 3 11
M  V30 8 3 4 5
M  V30 9 1 4 8
M  V30 10 1 5 6
M  V30 11 1 6 9
M  V30 12 1 6 13
M  V30 13 1 7 8
M  V30 14 1 7 9
M  V30 15 1 7 14
M  V30 16 1 9 15
M  V30 END BOND
M  V30 END CTAB
M  END
>  <ID>
226
$$$$
Structure_227
Score 	 10.0, smilesprid 	smiles	 smilestrue 	smiles	 similartanimoto 	0	 similardice 	0

   15   16  0  0  0  0            999 V3000
M  V30 BEGIN CTAB
M  V30 COUNTS 15 16 0 0 0
M  V30 BEGIN ATOM
M  V30 1 C -2.5391 -0.1953 0.0000 0
M  V30 2 C -1.7578 -1.3672 0.0000 0
M  V30 3 C -1.7578 0.9766 0.0000 0
M  V30 4 C -0.3906 -0.7812 0.0000 0
M  V30 5 C -0.3906 0.5859 0.0000 0
M  V30 6 C 0.7812 1.1719 0.0000 0
M  V30 7 C 1.9531 -0.7812 0.0000 0
M  V30 8 N 0.7812 -1.5625 0.0000 0
M  V30 9 N 1.9531 0.3906 0.0000 0
M  V30 10 H -3.5156 -0.1953 0.0000 0
M  V30 11 H -2.1484 2.1484 0.0000 0
M  V30 12 H -1.9531 -2.3438 0.0000 0
M  V30 13 H 0.9766 2.3438 0.0000 0
M  V30 14 H 2.9297 -1.3672 0.0000 0
M  V30 15 H 2.7344 0.9766 0.0000 0
M  V30 END ATOM
M  V30 BEGIN BOND
M  V30 1 2 1 2
M  V30 2 1 1 3
M  V30 3 1 1 10
M  V30 4 3 2 4
M  V30 5 1 2 12
M  V30 6 2 3 5
M  V30 7 1 3 11
M  V30 8 3 4 5
M  V30 9 1 4 8
M  V30 10 1 5 6
M  V30 11 1 6 9
M  V30 12 1 6 13
M  V30 13 1 7 8
M  V30 14 1 7 9
M  V30 15 1 7 14
M  V30 16 1 9 15
M  V30 END BOND
M  V30 END CTAB
M  END
>  <ID>
227
$$$$
Structure_228
Score 	 12.0, smilesprid 	smiles	 smilestrue 	smiles	 similartanimoto 	0	 similardice 	0

   15   16  0  0  0  0            999 V3000
M  V30 BEGIN CTAB
M  V30 COUNTS 15 16 0 0 0
M  V30 BEGIN ATOM
M  V30 1 C -2.5391 -0.1953 0.0000 0
M  V30 2 C -1.7578 -1.3672 0.0000 0
M  V30 3 C -1.7578 0.9766 0.0000 0
M  V30 4 C -0.3906 -0.7812 0.0000 0
M  V30 5 C -0.3906 0.5859 0.0000 0
M  V30 6 C 0.7812 1.1719 0.0000 0
M  V30 7 C 1.9531 -0.7812 0.0000 0
M  V30 8 N 0.7812 -1.5625 0.0000 0
M  V30 9 N 1.9531 0.3906 0.0000 0
M  V30 10 H -3.5156 -0.1953 0.0000 0
M  V30 11 H -2.1484 2.1484 0.0000 0
M  V30 12 H -1.9531 -2.3438 0.0000 0
M  V30 13 H 0.9766 2.3438 0.0000 0
M  V30 14 H 2.9297 -1.3672 0.0000 0
M  V30 15 H 2.7344 0.9766 0.0000 0
M  V30 END ATOM
M  V30 BEGIN BOND
M  V30 1 3 1 2
M  V30 2 1 1 3
M  V30 3 1 1 10
M  V30 4 3 2 4
M  V30 5 1 2 12
M  V30 6 2 3 5
M  V30 7 1 3 11
M  V30 8 3 4 5
M  V30 9 1 4 8
M  V30 10 1 5 6
M  V30 11 1 6 9
M  V30 12 1 6 13
M  V30 13 1 7 8
M  V30 14 1 7 9
M  V30 15 1 7 14
M  V30 16 1 9 15
M  V30 END BOND
M  V30 END CTAB
M  END
>  <ID>
228
$$$$
Structure_229
Score 	 10.0, smilesprid 	smiles	 smilestrue 	smiles	 similartanimoto 	0	 similardice 	0

   15   16  0  0  0  0            999 V3000
M  V30 BEGIN CTAB
M  V30 COUNTS 15 16 0 0 0
M  V30 BEGIN ATOM
M  V30 1 C -2.5391 -0.1953 0.0000 0
M  V30 2 C -1.7578 -1.3672 0.0000 0
M  V30 3 C -1.7578 0.9766 0.0000 0
M  V30 4 C -0.3906 -0.7812 0.0000 0
M  V30 5 C -0.3906 0.5859 0.0000 0
M  V30 6 C 0.7812 1.1719 0.0000 0
M  V30 7 C 1.9531 -0.7812 0.0000 0
M  V30 8 N 0.7812 -1.5625 0.0000 0
M  V30 9 N 1.9531 0.3906 0.0000 0
M  V30 10 H -3.5156 -0.1953 0.0000 0
M  V30 11 H -2.1484 2.1484 0.0000 0
M  V30 12 H -1.9531 -2.3438 0.0000 0
M  V30 13 H 0.9766 2.3438 0.0000 0
M  V30 14 H 2.9297 -1.3672 0.0000 0
M  V30 15 H 2.7344 0.9766 0.0000 0
M  V30 END ATOM
M  V30 BEGIN BOND
M  V30 1 1 1 2
M  V30 2 2 1 3
M  V30 3 1 1 10
M  V30 4 3 2 4
M  V30 5 1 2 12
M  V30 6 2 3 5
M  V30 7 1 3 11
M  V30 8 3 4 5
M  V30 9 1 4 8
M  V30 10 1 5 6
M  V30 11 1 6 9
M  V30 12 1 6 13
M  V30 13 1 7 8
M  V30 14 1 7 9
M  V30 15 1 7 14
M  V30 16 1 9 15
M  V30 END BOND
M  V30 END CTAB
M  END
>  <ID>
229
$$$$
Structure_230
Score 	 12.0, smilesprid 	smiles	 smilestrue 	smiles	 similartanimoto 	0	 similardice 	0

   15   16  0  0  0  0            999 V3000
M  V30 BEGIN CTAB
M  V30 COUNTS 15 16 0 0 0
M  V30 BEGIN ATOM
M  V30 1 C -2.5391 -0.1953 0.0000 0
M  V30 2 C -1.7578 -1.3672 0.0000 0
M  V30 3 C -1.7578 0.9766 0.0000 0
M  V30 4 C -0.3906 -0.7812 0.0000 0
M  V30 5 C -0.3906 0.5859 0.0000 0
M  V30 6 C 0.7812 1.1719 0.0000 0
M  V30 7 C 1.9531 -0.7812 0.0000 0
M  V30 8 N 0.7812 -1.5625 0.0000 0
M  V30 9 N 1.9531 0.3906 0.0000 0
M  V30 10 H -3.5156 -0.1953 0.0000 0
M  V30 11 H -2.1484 2.1484 0.0000 0
M  V30 12 H -1.9531 -2.3438 0.0000 0
M  V30 13 H 0.9766 2.3438 0.0000 0
M  V30 14 H 2.9297 -1.3672 0.0000 0
M  V30 15 H 2.7344 0.9766 0.0000 0
M  V30 END ATOM
M  V30 BEGIN BOND
M  V30 1 2 1 2
M  V30 2 2 1 3
M  V30 3 1 1 10
M  V30 4 3 2 4
M  V30 5 1 2 12
M  V30 6 2 3 5
M  V30 7 1 3 11
M  V30 8 3 4 5
M  V30 9 1 4 8
M  V30 10 1 5 6
M  V30 11 1 6 9
M  V30 12 1 6 13
M  V30 13 1 7 8
M  V30 14 1 7 9
M  V30 15 1 7 14
M  V30 16 1 9 15
M  V30 END BOND
M  V30 END CTAB
M  END
>  <ID>
230
$$$$
Structure_231
Score 	 14.0, smilesprid 	smiles	 smilestrue 	smiles	 similartanimoto 	0	 similardice 	0

   15   16  0  0  0  0            999 V3000
M  V30 BEGIN CTAB
M  V30 COUNTS 15 16 0 0 0
M  V30 BEGIN ATOM
M  V30 1 C -2.5391 -0.1953 0.0000 0
M  V30 2 C -1.7578 -1.3672 0.0000 0
M  V30 3 C -1.7578 0.9766 0.0000 0
M  V30 4 C -0.3906 -0.7812 0.0000 0
M  V30 5 C -0.3906 0.5859 0.0000 0
M  V30 6 C 0.7812 1.1719 0.0000 0
M  V30 7 C 1.9531 -0.7812 0.0000 0
M  V30 8 N 0.7812 -1.5625 0.0000 0
M  V30 9 N 1.9531 0.3906 0.0000 0
M  V30 10 H -3.5156 -0.1953 0.0000 0
M  V30 11 H -2.1484 2.1484 0.0000 0
M  V30 12 H -1.9531 -2.3438 0.0000 0
M  V30 13 H 0.9766 2.3438 0.0000 0
M  V30 14 H 2.9297 -1.3672 0.0000 0
M  V30 15 H 2.7344 0.9766 0.0000 0
M  V30 END ATOM
M  V30 BEGIN BOND
M  V30 1 3 1 2
M  V30 2 2 1 3
M  V30 3 1 1 10
M  V30 4 3 2 4
M  V30 5 1 2 12
M  V30 6 2 3 5
M  V30 7 1 3 11
M  V30 8 3 4 5
M  V30 9 1 4 8
M  V30 10 1 5 6
M  V30 11 1 6 9
M  V30 12 1 6 13
M  V30 13 1 7 8
M  V30 14 1 7 9
M  V30 15 1 7 14
M  V30 16 1 9 15
M  V30 END BOND
M  V30 END CTAB
M  END
>  <ID>
231
$$$$
Structure_232
Score 	 12.0, smilesprid 	smiles	 smilestrue 	smiles	 similartanimoto 	0	 similardice 	0

   15   16  0  0  0  0            999 V3000
M  V30 BEGIN CTAB
M  V30 COUNTS 15 16 0 0 0
M  V30 BEGIN ATOM
M  V30 1 C -2.5391 -0.1953 0.0000 0
M  V30 2 C -1.7578 -1.3672 0.0000 0
M  V30 3 C -1.7578 0.9766 0.0000 0
M  V30 4 C -0.3906 -0.7812 0.0000 0
M  V30 5 C -0.3906 0.5859 0.0000 0
M  V30 6 C 0.7812 1.1719 0.0000 0
M  V30 7 C 1.9531 -0.7812 0.0000 0
M  V30 8 N 0.7812 -1.5625 0.0000 0
M  V30 9 N 1.9531 0.3906 0.0000 0
M  V30 10 H -3.5156 -0.1953 0.0000 0
M  V30 11 H -2.1484 2.1484 0.0000 0
M  V30 12 H -1.9531 -2.3438 0.0000 0
M  V30 13 H 0.9766 2.3438 0.0000 0
M  V30 14 H 2.9297 -1.3672 0.0000 0
M  V30 15 H 2.7344 0.9766 0.0000 0
M  V30 END ATOM
M  V30 BEGIN BOND
M  V30 1 1 1 2
M  V30 2 3 1 3
M  V30 3 1 1 10
M  V30 4 3 2 4
M  V30 5 1 2 12
M  V30 6 2 3 5
M  V30 7 1 3 11
M  V30 8 3 4 5
M  V30 9 1 4 8
M  V30 10 1 5 6
M  V30 11 1 6 9
M  V30 12 1 6 13
M  V30 13 1 7 8
M  V30 14 1 7 9
M  V30 15 1 7 14
M  V30 16 1 9 15
M  V30 END BOND
M  V30 END CTAB
M  END
>  <ID>
232
$$$$
Structure_233
Score 	 14.0, smilesprid 	smiles	 smilestrue 	smiles	 similartanimoto 	0	 similardice 	0

   15   16  0  0  0  0            999 V3000
M  V30 BEGIN CTAB
M  V30 COUNTS 15 16 0 0 0
M  V30 BEGIN ATOM
M  V30 1 C -2.5391 -0.1953 0.0000 0
M  V30 2 C -1.7578 -1.3672 0.0000 0
M  V30 3 C -1.7578 0.9766 0.0000 0
M  V30 4 C -0.3906 -0.7812 0.0000 0
M  V30 5 C -0.3906 0.5859 0.0000 0
M  V30 6 C 0.7812 1.1719 0.0000 0
M  V30 7 C 1.9531 -0.7812 0.0000 0
M  V30 8 N 0.7812 -1.5625 0.0000 0
M  V30 9 N 1.9531 0.3906 0.0000 0
M  V30 10 H -3.5156 -0.1953 0.0000 0
M  V30 11 H -2.1484 2.1484 0.0000 0
M  V30 12 H -1.9531 -2.3438 0.0000 0
M  V30 13 H 0.9766 2.3438 0.0000 0
M  V30 14 H 2.9297 -1.3672 0.0000 0
M  V30 15 H 2.7344 0.9766 0.0000 0
M  V30 END ATOM
M  V30 BEGIN BOND
M  V30 1 2 1 2
M  V30 2 3 1 3
M  V30 3 1 1 10
M  V30 4 3 2 4
M  V30 5 1 2 12
M  V30 6 2 3 5
M  V30 7 1 3 11
M  V30 8 3 4 5
M  V30 9 1 4 8
M  V30 10 1 5 6
M  V30 11 1 6 9
M  V30 12 1 6 13
M  V30 13 1 7 8
M  V30 14 1 7 9
M  V30 15 1 7 14
M  V30 16 1 9 15
M  V30 END BOND
M  V30 END CTAB
M  END
>  <ID>
233
$$$$
Structure_234
Score 	 16.0, smilesprid 	smiles	 smilestrue 	smiles	 similartanimoto 	0	 similardice 	0

   15   16  0  0  0  0            999 V3000
M  V30 BEGIN CTAB
M  V30 COUNTS 15 16 0 0 0
M  V30 BEGIN ATOM
M  V30 1 C -2.5391 -0.1953 0.0000 0
M  V30 2 C -1.7578 -1.3672 0.0000 0
M  V30 3 C -1.7578 0.9766 0.0000 0
M  V30 4 C -0.3906 -0.7812 0.0000 0
M  V30 5 C -0.3906 0.5859 0.0000 0
M  V30 6 C 0.7812 1.1719 0.0000 0
M  V30 7 C 1.9531 -0.7812 0.0000 0
M  V30 8 N 0.7812 -1.5625 0.0000 0
M  V30 9 N 1.9531 0.3906 0.0000 0
M  V30 10 H -3.5156 -0.1953 0.0000 0
M  V30 11 H -2.1484 2.1484 0.0000 0
M  V30 12 H -1.9531 -2.3438 0.0000 0
M  V30 13 H 0.9766 2.3438 0.0000 0
M  V30 14 H 2.9297 -1.3672 0.0000 0
M  V30 15 H 2.7344 0.9766 0.0000 0
M  V30 END ATOM
M  V30 BEGIN BOND
M  V30 1 3 1 2
M  V30 2 3 1 3
M  V30 3 1 1 10
M  V30 4 3 2 4
M  V30 5 1 2 12
M  V30 6 2 3 5
M  V30 7 1 3 11
M  V30 8 3 4 5
M  V30 9 1 4 8
M  V30 10 1 5 6
M  V30 11 1 6 9
M  V30 12 1 6 13
M  V30 13 1 7 8
M  V30 14 1 7 9
M  V30 15 1 7 14
M  V30 16 1 9 15
M  V30 END BOND
M  V30 END CTAB
M  END
>  <ID>
234
$$$$
Structure_235
Score 	 12.0, smilesprid 	smiles	 smilestrue 	smiles	 similartanimoto 	0	 similardice 	0

   15   16  0  0  0  0            999 V3000
M  V30 BEGIN CTAB
M  V30 COUNTS 15 16 0 0 0
M  V30 BEGIN ATOM
M  V30 1 C -2.5391 -0.1953 0.0000 0
M  V30 2 C -1.7578 -1.3672 0.0000 0
M  V30 3 C -1.7578 0.9766 0.0000 0
M  V30 4 C -0.3906 -0.7812 0.0000 0
M  V30 5 C -0.3906 0.5859 0.0000 0
M  V30 6 C 0.7812 1.1719 0.0000 0
M  V30 7 C 1.9531 -0.7812 0.0000 0
M  V30 8 N 0.7812 -1.5625 0.0000 0
M  V30 9 N 1.9531 0.3906 0.0000 0
M  V30 10 H -3.5156 -0.1953 0.0000 0
M  V30 11 H -2.1484 2.1484 0.0000 0
M  V30 12 H -1.9531 -2.3438 0.0000 0
M  V30 13 H 0.9766 2.3438 0.0000 0
M  V30 14 H 2.9297 -1.3672 0.0000 0
M  V30 15 H 2.7344 0.9766 0.0000 0
M  V30 END ATOM
M  V30 BEGIN BOND
M  V30 1 1 1 2
M  V30 2 1 1 3
M  V30 3 1 1 10
M  V30 4 3 2 4
M  V30 5 1 2 12
M  V30 6 3 3 5
M  V30 7 1 3 11
M  V30 8 3 4 5
M  V30 9 1 4 8
M  V30 10 1 5 6
M  V30 11 1 6 9
M  V30 12 1 6 13
M  V30 13 1 7 8
M  V30 14 1 7 9
M  V30 15 1 7 14
M  V30 16 1 9 15
M  V30 END BOND
M  V30 END CTAB
M  END
>  <ID>
235
$$$$
Structure_236
Score 	 12.0, smilesprid 	smiles	 smilestrue 	smiles	 similartanimoto 	0	 similardice 	0

   15   16  0  0  0  0            999 V3000
M  V30 BEGIN CTAB
M  V30 COUNTS 15 16 0 0 0
M  V30 BEGIN ATOM
M  V30 1 C -2.5391 -0.1953 0.0000 0
M  V30 2 C -1.7578 -1.3672 0.0000 0
M  V30 3 C -1.7578 0.9766 0.0000 0
M  V30 4 C -0.3906 -0.7812 0.0000 0
M  V30 5 C -0.3906 0.5859 0.0000 0
M  V30 6 C 0.7812 1.1719 0.0000 0
M  V30 7 C 1.9531 -0.7812 0.0000 0
M  V30 8 N 0.7812 -1.5625 0.0000 0
M  V30 9 N 1.9531 0.3906 0.0000 0
M  V30 10 H -3.5156 -0.1953 0.0000 0
M  V30 11 H -2.1484 2.1484 0.0000 0
M  V30 12 H -1.9531 -2.3438 0.0000 0
M  V30 13 H 0.9766 2.3438 0.0000 0
M  V30 14 H 2.9297 -1.3672 0.0000 0
M  V30 15 H 2.7344 0.9766 0.0000 0
M  V30 END ATOM
M  V30 BEGIN BOND
M  V30 1 2 1 2
M  V30 2 1 1 3
M  V30 3 1 1 10
M  V30 4 3 2 4
M  V30 5 1 2 12
M  V30 6 3 3 5
M  V30 7 1 3 11
M  V30 8 3 4 5
M  V30 9 1 4 8
M  V30 10 1 5 6
M  V30 11 1 6 9
M  V30 12 1 6 13
M  V30 13 1 7 8
M  V30 14 1 7 9
M  V30 15 1 7 14
M  V30 16 1 9 15
M  V30 END BOND
M  V30 END CTAB
M  END
>  <ID>
236
$$$$
Structure_237
Score 	 14.0, smilesprid 	smiles	 smilestrue 	smiles	 similartanimoto 	0	 similardice 	0

   15   16  0  0  0  0            999 V3000
M  V30 BEGIN CTAB
M  V30 COUNTS 15 16 0 0 0
M  V30 BEGIN ATOM
M  V30 1 C -2.5391 -0.1953 0.0000 0
M  V30 2 C -1.7578 -1.3672 0.0000 0
M  V30 3 C -1.7578 0.9766 0.0000 0
M  V30 4 C -0.3906 -0.7812 0.0000 0
M  V30 5 C -0.3906 0.5859 0.0000 0
M  V30 6 C 0.7812 1.1719 0.0000 0
M  V30 7 C 1.9531 -0.7812 0.0000 0
M  V30 8 N 0.7812 -1.5625 0.0000 0
M  V30 9 N 1.9531 0.3906 0.0000 0
M  V30 10 H -3.5156 -0.1953 0.0000 0
M  V30 11 H -2.1484 2.1484 0.0000 0
M  V30 12 H -1.9531 -2.3438 0.0000 0
M  V30 13 H 0.9766 2.3438 0.0000 0
M  V30 14 H 2.9297 -1.3672 0.0000 0
M  V30 15 H 2.7344 0.9766 0.0000 0
M  V30 END ATOM
M  V30 BEGIN BOND
M  V30 1 3 1 2
M  V30 2 1 1 3
M  V30 3 1 1 10
M  V30 4 3 2 4
M  V30 5 1 2 12
M  V30 6 3 3 5
M  V30 7 1 3 11
M  V30 8 3 4 5
M  V30 9 1 4 8
M  V30 10 1 5 6
M  V30 11 1 6 9
M  V30 12 1 6 13
M  V30 13 1 7 8
M  V30 14 1 7 9
M  V30 15 1 7 14
M  V30 16 1 9 15
M  V30 END BOND
M  V30 END CTAB
M  END
>  <ID>
237
$$$$
Structure_238
Score 	 12.0, smilesprid 	smiles	 smilestrue 	smiles	 similartanimoto 	0	 similardice 	0

   15   16  0  0  0  0            999 V3000
M  V30 BEGIN CTAB
M  V30 COUNTS 15 16 0 0 0
M  V30 BEGIN ATOM
M  V30 1 C -2.5391 -0.1953 0.0000 0
M  V30 2 C -1.7578 -1.3672 0.0000 0
M  V30 3 C -1.7578 0.9766 0.0000 0
M  V30 4 C -0.3906 -0.7812 0.0000 0
M  V30 5 C -0.3906 0.5859 0.0000 0
M  V30 6 C 0.7812 1.1719 0.0000 0
M  V30 7 C 1.9531 -0.7812 0.0000 0
M  V30 8 N 0.7812 -1.5625 0.0000 0
M  V30 9 N 1.9531 0.3906 0.0000 0
M  V30 10 H -3.5156 -0.1953 0.0000 0
M  V30 11 H -2.1484 2.1484 0.0000 0
M  V30 12 H -1.9531 -2.3438 0.0000 0
M  V30 13 H 0.9766 2.3438 0.0000 0
M  V30 14 H 2.9297 -1.3672 0.0000 0
M  V30 15 H 2.7344 0.9766 0.0000 0
M  V30 END ATOM
M  V30 BEGIN BOND
M  V30 1 1 1 2
M  V30 2 2 1 3
M  V30 3 1 1 10
M  V30 4 3 2 4
M  V30 5 1 2 12
M  V30 6 3 3 5
M  V30 7 1 3 11
M  V30 8 3 4 5
M  V30 9 1 4 8
M  V30 10 1 5 6
M  V30 11 1 6 9
M  V30 12 1 6 13
M  V30 13 1 7 8
M  V30 14 1 7 9
M  V30 15 1 7 14
M  V30 16 1 9 15
M  V30 END BOND
M  V30 END CTAB
M  END
>  <ID>
238
$$$$
Structure_239
Score 	 14.0, smilesprid 	smiles	 smilestrue 	smiles	 similartanimoto 	0	 similardice 	0

   15   16  0  0  0  0            999 V3000
M  V30 BEGIN CTAB
M  V30 COUNTS 15 16 0 0 0
M  V30 BEGIN ATOM
M  V30 1 C -2.5391 -0.1953 0.0000 0
M  V30 2 C -1.7578 -1.3672 0.0000 0
M  V30 3 C -1.7578 0.9766 0.0000 0
M  V30 4 C -0.3906 -0.7812 0.0000 0
M  V30 5 C -0.3906 0.5859 0.0000 0
M  V30 6 C 0.7812 1.1719 0.0000 0
M  V30 7 C 1.9531 -0.7812 0.0000 0
M  V30 8 N 0.7812 -1.5625 0.0000 0
M  V30 9 N 1.9531 0.3906 0.0000 0
M  V30 10 H -3.5156 -0.1953 0.0000 0
M  V30 11 H -2.1484 2.1484 0.0000 0
M  V30 12 H -1.9531 -2.3438 0.0000 0
M  V30 13 H 0.9766 2.3438 0.0000 0
M  V30 14 H 2.9297 -1.3672 0.0000 0
M  V30 15 H 2.7344 0.9766 0.0000 0
M  V30 END ATOM
M  V30 BEGIN BOND
M  V30 1 2 1 2
M  V30 2 2 1 3
M  V30 3 1 1 10
M  V30 4 3 2 4
M  V30 5 1 2 12
M  V30 6 3 3 5
M  V30 7 1 3 11
M  V30 8 3 4 5
M  V30 9 1 4 8
M  V30 10 1 5 6
M  V30 11 1 6 9
M  V30 12 1 6 13
M  V30 13 1 7 8
M  V30 14 1 7 9
M  V30 15 1 7 14
M  V30 16 1 9 15
M  V30 END BOND
M  V30 END CTAB
M  END
>  <ID>
239
$$$$
Structure_240
Score 	 16.0, smilesprid 	smiles	 smilestrue 	smiles	 similartanimoto 	0	 similardice 	0

   15   16  0  0  0  0            999 V3000
M  V30 BEGIN CTAB
M  V30 COUNTS 15 16 0 0 0
M  V30 BEGIN ATOM
M  V30 1 C -2.5391 -0.1953 0.0000 0
M  V30 2 C -1.7578 -1.3672 0.0000 0
M  V30 3 C -1.7578 0.9766 0.0000 0
M  V30 4 C -0.3906 -0.7812 0.0000 0
M  V30 5 C -0.3906 0.5859 0.0000 0
M  V30 6 C 0.7812 1.1719 0.0000 0
M  V30 7 C 1.9531 -0.7812 0.0000 0
M  V30 8 N 0.7812 -1.5625 0.0000 0
M  V30 9 N 1.9531 0.3906 0.0000 0
M  V30 10 H -3.5156 -0.1953 0.0000 0
M  V30 11 H -2.1484 2.1484 0.0000 0
M  V30 12 H -1.9531 -2.3438 0.0000 0
M  V30 13 H 0.9766 2.3438 0.0000 0
M  V30 14 H 2.9297 -1.3672 0.0000 0
M  V30 15 H 2.7344 0.9766 0.0000 0
M  V30 END ATOM
M  V30 BEGIN BOND
M  V30 1 3 1 2
M  V30 2 2 1 3
M  V30 3 1 1 10
M  V30 4 3 2 4
M  V30 5 1 2 12
M  V30 6 3 3 5
M  V30 7 1 3 11
M  V30 8 3 4 5
M  V30 9 1 4 8
M  V30 10 1 5 6
M  V30 11 1 6 9
M  V30 12 1 6 13
M  V30 13 1 7 8
M  V30 14 1 7 9
M  V30 15 1 7 14
M  V30 16 1 9 15
M  V30 END BOND
M  V30 END CTAB
M  END
>  <ID>
240
$$$$
Structure_241
Score 	 14.0, smilesprid 	smiles	 smilestrue 	smiles	 similartanimoto 	0	 similardice 	0

   15   16  0  0  0  0            999 V3000
M  V30 BEGIN CTAB
M  V30 COUNTS 15 16 0 0 0
M  V30 BEGIN ATOM
M  V30 1 C -2.5391 -0.1953 0.0000 0
M  V30 2 C -1.7578 -1.3672 0.0000 0
M  V30 3 C -1.7578 0.9766 0.0000 0
M  V30 4 C -0.3906 -0.7812 0.0000 0
M  V30 5 C -0.3906 0.5859 0.0000 0
M  V30 6 C 0.7812 1.1719 0.0000 0
M  V30 7 C 1.9531 -0.7812 0.0000 0
M  V30 8 N 0.7812 -1.5625 0.0000 0
M  V30 9 N 1.9531 0.3906 0.0000 0
M  V30 10 H -3.5156 -0.1953 0.0000 0
M  V30 11 H -2.1484 2.1484 0.0000 0
M  V30 12 H -1.9531 -2.3438 0.0000 0
M  V30 13 H 0.9766 2.3438 0.0000 0
M  V30 14 H 2.9297 -1.3672 0.0000 0
M  V30 15 H 2.7344 0.9766 0.0000 0
M  V30 END ATOM
M  V30 BEGIN BOND
M  V30 1 1 1 2
M  V30 2 3 1 3
M  V30 3 1 1 10
M  V30 4 3 2 4
M  V30 5 1 2 12
M  V30 6 3 3 5
M  V30 7 1 3 11
M  V30 8 3 4 5
M  V30 9 1 4 8
M  V30 10 1 5 6
M  V30 11 1 6 9
M  V30 12 1 6 13
M  V30 13 1 7 8
M  V30 14 1 7 9
M  V30 15 1 7 14
M  V30 16 1 9 15
M  V30 END BOND
M  V30 END CTAB
M  END
>  <ID>
241
$$$$
Structure_242
Score 	 16.0, smilesprid 	smiles	 smilestrue 	smiles	 similartanimoto 	0	 similardice 	0

   15   16  0  0  0  0            999 V3000
M  V30 BEGIN CTAB
M  V30 COUNTS 15 16 0 0 0
M  V30 BEGIN ATOM
M  V30 1 C -2.5391 -0.1953 0.0000 0
M  V30 2 C -1.7578 -1.3672 0.0000 0
M  V30 3 C -1.7578 0.9766 0.0000 0
M  V30 4 C -0.3906 -0.7812 0.0000 0
M  V30 5 C -0.3906 0.5859 0.0000 0
M  V30 6 C 0.7812 1.1719 0.0000 0
M  V30 7 C 1.9531 -0.7812 0.0000 0
M  V30 8 N 0.7812 -1.5625 0.0000 0
M  V30 9 N 1.9531 0.3906 0.0000 0
M  V30 10 H -3.5156 -0.1953 0.0000 0
M  V30 11 H -2.1484 2.1484 0.0000 0
M  V30 12 H -1.9531 -2.3438 0.0000 0
M  V30 13 H 0.9766 2.3438 0.0000 0
M  V30 14 H 2.9297 -1.3672 0.0000 0
M  V30 15 H 2.7344 0.9766 0.0000 0
M  V30 END ATOM
M  V30 BEGIN BOND
M  V30 1 2 1 2
M  V30 2 3 1 3
M  V30 3 1 1 10
M  V30 4 3 2 4
M  V30 5 1 2 12
M  V30 6 3 3 5
M  V30 7 1 3 11
M  V30 8 3 4 5
M  V30 9 1 4 8
M  V30 10 1 5 6
M  V30 11 1 6 9
M  V30 12 1 6 13
M  V30 13 1 7 8
M  V30 14 1 7 9
M  V30 15 1 7 14
M  V30 16 1 9 15
M  V30 END BOND
M  V30 END CTAB
M  END
>  <ID>
242
$$$$
Structure_243
Score 	 18.0, smilesprid 	smiles	 smilestrue 	smiles	 similartanimoto 	0	 similardice 	0

   15   16  0  0  0  0            999 V3000
M  V30 BEGIN CTAB
M  V30 COUNTS 15 16 0 0 0
M  V30 BEGIN ATOM
M  V30 1 C -2.5391 -0.1953 0.0000 0
M  V30 2 C -1.7578 -1.3672 0.0000 0
M  V30 3 C -1.7578 0.9766 0.0000 0
M  V30 4 C -0.3906 -0.7812 0.0000 0
M  V30 5 C -0.3906 0.5859 0.0000 0
M  V30 6 C 0.7812 1.1719 0.0000 0
M  V30 7 C 1.9531 -0.7812 0.0000 0
M  V30 8 N 0.7812 -1.5625 0.0000 0
M  V30 9 N 1.9531 0.3906 0.0000 0
M  V30 10 H -3.5156 -0.1953 0.0000 0
M  V30 11 H -2.1484 2.1484 0.0000 0
M  V30 12 H -1.9531 -2.3438 0.0000 0
M  V30 13 H 0.9766 2.3438 0.0000 0
M  V30 14 H 2.9297 -1.3672 0.0000 0
M  V30 15 H 2.7344 0.9766 0.0000 0
M  V30 END ATOM
M  V30 BEGIN BOND
M  V30 1 3 1 2
M  V30 2 3 1 3
M  V30 3 1 1 10
M  V30 4 3 2 4
M  V30 5 1 2 12
M  V30 6 3 3 5
M  V30 7 1 3 11
M  V30 8 3 4 5
M  V30 9 1 4 8
M  V30 10 1 5 6
M  V30 11 1 6 9
M  V30 12 1 6 13
M  V30 13 1 7 8
M  V30 14 1 7 9
M  V30 15 1 7 14
M  V30 16 1 9 15
M  V30 END BOND
M  V30 END CTAB
M  END
>  <ID>
243
$$$$
Structure_244
Score 	 6.0, smilesprid 	smiles	 smilestrue 	smiles	 similartanimoto 	0	 similardice 	0

   15   16  0  0  0  0            999 V3000
M  V30 BEGIN CTAB
M  V30 COUNTS 15 16 0 0 0
M  V30 BEGIN ATOM
M  V30 1 C -2.5391 -0.1953 0.0000 0
M  V30 2 C -1.7578 -1.3672 0.0000 0
M  V30 3 C -1.7578 0.9766 0.0000 0
M  V30 4 C -0.3906 -0.7812 0.0000 0
M  V30 5 C -0.3906 0.5859 0.0000 0
M  V30 6 C 0.7812 1.1719 0.0000 0
M  V30 7 C 1.9531 -0.7812 0.0000 0
M  V30 8 N 0.7812 -1.5625 0.0000 0
M  V30 9 N 1.9531 0.3906 0.0000 0
M  V30 10 H -3.5156 -0.1953 0.0000 0
M  V30 11 H -2.1484 2.1484 0.0000 0
M  V30 12 H -1.9531 -2.3438 0.0000 0
M  V30 13 H 0.9766 2.3438 0.0000 0
M  V30 14 H 2.9297 -1.3672 0.0000 0
M  V30 15 H 2.7344 0.9766 0.0000 0
M  V30 END ATOM
M  V30 BEGIN BOND
M  V30 1 1 1 2
M  V30 2 1 1 3
M  V30 3 1 1 10
M  V30 4 1 2 4
M  V30 5 1 2 12
M  V30 6 1 3 5
M  V30 7 1 3 11
M  V30 8 1 4 5
M  V30 9 1 4 8
M  V30 10 2 5 6
M  V30 11 1 6 9
M  V30 12 1 6 13
M  V30 13 1 7 8
M  V30 14 1 7 9
M  V30 15 1 7 14
M  V30 16 1 9 15
M  V30 END BOND
M  V30 END CTAB
M  END
>  <ID>
244
$$$$
Structure_245
Score 	 4.0, smilesprid 	smiles	 smilestrue 	smiles	 similartanimoto 	0	 similardice 	0

   15   16  0  0  0  0            999 V3000
M  V30 BEGIN CTAB
M  V30 COUNTS 15 16 0 0 0
M  V30 BEGIN ATOM
M  V30 1 C -2.5391 -0.1953 0.0000 0
M  V30 2 C -1.7578 -1.3672 0.0000 0
M  V30 3 C -1.7578 0.9766 0.0000 0
M  V30 4 C -0.3906 -0.7812 0.0000 0
M  V30 5 C -0.3906 0.5859 0.0000 0
M  V30 6 C 0.7812 1.1719 0.0000 0
M  V30 7 C 1.9531 -0.7812 0.0000 0
M  V30 8 N 0.7812 -1.5625 0.0000 0
M  V30 9 N 1.9531 0.3906 0.0000 0
M  V30 10 H -3.5156 -0.1953 0.0000 0
M  V30 11 H -2.1484 2.1484 0.0000 0
M  V30 12 H -1.9531 -2.3438 0.0000 0
M  V30 13 H 0.9766 2.3438 0.0000 0
M  V30 14 H 2.9297 -1.3672 0.0000 0
M  V30 15 H 2.7344 0.9766 0.0000 0
M  V30 END ATOM
M  V30 BEGIN BOND
M  V30 1 2 1 2
M  V30 2 1 1 3
M  V30 3 1 1 10
M  V30 4 1 2 4
M  V30 5 1 2 12
M  V30 6 1 3 5
M  V30 7 1 3 11
M  V30 8 1 4 5
M  V30 9 1 4 8
M  V30 10 2 5 6
M  V30 11 1 6 9
M  V30 12 1 6 13
M  V30 13 1 7 8
M  V30 14 1 7 9
M  V30 15 1 7 14
M  V30 16 1 9 15
M  V30 END BOND
M  V30 END CTAB
M  END
>  <ID>
245
$$$$
Structure_246
Score 	 6.0, smilesprid 	smiles	 smilestrue 	smiles	 similartanimoto 	0	 similardice 	0

   15   16  0  0  0  0            999 V3000
M  V30 BEGIN CTAB
M  V30 COUNTS 15 16 0 0 0
M  V30 BEGIN ATOM
M  V30 1 C -2.5391 -0.1953 0.0000 0
M  V30 2 C -1.7578 -1.3672 0.0000 0
M  V30 3 C -1.7578 0.9766 0.0000 0
M  V30 4 C -0.3906 -0.7812 0.0000 0
M  V30 5 C -0.3906 0.5859 0.0000 0
M  V30 6 C 0.7812 1.1719 0.0000 0
M  V30 7 C 1.9531 -0.7812 0.0000 0
M  V30 8 N 0.7812 -1.5625 0.0000 0
M  V30 9 N 1.9531 0.3906 0.0000 0
M  V30 10 H -3.5156 -0.1953 0.0000 0
M  V30 11 H -2.1484 2.1484 0.0000 0
M  V30 12 H -1.9531 -2.3438 0.0000 0
M  V30 13 H 0.9766 2.3438 0.0000 0
M  V30 14 H 2.9297 -1.3672 0.0000 0
M  V30 15 H 2.7344 0.9766 0.0000 0
M  V30 END ATOM
M  V30 BEGIN BOND
M  V30 1 3 1 2
M  V30 2 1 1 3
M  V30 3 1 1 10
M  V30 4 1 2 4
M  V30 5 1 2 12
M  V30 6 1 3 5
M  V30 7 1 3 11
M  V30 8 1 4 5
M  V30 9 1 4 8
M  V30 10 2 5 6
M  V30 11 1 6 9
M  V30 12 1 6 13
M  V30 13 1 7 8
M  V30 14 1 7 9
M  V30 15 1 7 14
M  V30 16 1 9 15
M  V30 END BOND
M  V30 END CTAB
M  END
>  <ID>
246
$$$$
Structure_247
Score 	 4.0, smilesprid 	smiles	 smilestrue 	smiles	 similartanimoto 	0	 similardice 	0

   15   16  0  0  0  0            999 V3000
M  V30 BEGIN CTAB
M  V30 COUNTS 15 16 0 0 0
M  V30 BEGIN ATOM
M  V30 1 C -2.5391 -0.1953 0.0000 0
M  V30 2 C -1.7578 -1.3672 0.0000 0
M  V30 3 C -1.7578 0.9766 0.0000 0
M  V30 4 C -0.3906 -0.7812 0.0000 0
M  V30 5 C -0.3906 0.5859 0.0000 0
M  V30 6 C 0.7812 1.1719 0.0000 0
M  V30 7 C 1.9531 -0.7812 0.0000 0
M  V30 8 N 0.7812 -1.5625 0.0000 0
M  V30 9 N 1.9531 0.3906 0.0000 0
M  V30 10 H -3.5156 -0.1953 0.0000 0
M  V30 11 H -2.1484 2.1484 0.0000 0
M  V30 12 H -1.9531 -2.3438 0.0000 0
M  V30 13 H 0.9766 2.3438 0.0000 0
M  V30 14 H 2.9297 -1.3672 0.0000 0
M  V30 15 H 2.7344 0.9766 0.0000 0
M  V30 END ATOM
M  V30 BEGIN BOND
M  V30 1 1 1 2
M  V30 2 2 1 3
M  V30 3 1 1 10
M  V30 4 1 2 4
M  V30 5 1 2 12
M  V30 6 1 3 5
M  V30 7 1 3 11
M  V30 8 1 4 5
M  V30 9 1 4 8
M  V30 10 2 5 6
M  V30 11 1 6 9
M  V30 12 1 6 13
M  V30 13 1 7 8
M  V30 14 1 7 9
M  V30 15 1 7 14
M  V30 16 1 9 15
M  V30 END BOND
M  V30 END CTAB
M  END
>  <ID>
247
$$$$
Structure_248
Score 	 4.0, smilesprid 	smiles	 smilestrue 	smiles	 similartanimoto 	0	 similardice 	0

   15   16  0  0  0  0            999 V3000
M  V30 BEGIN CTAB
M  V30 COUNTS 15 16 0 0 0
M  V30 BEGIN ATOM
M  V30 1 C -2.5391 -0.1953 0.0000 0
M  V30 2 C -1.7578 -1.3672 0.0000 0
M  V30 3 C -1.7578 0.9766 0.0000 0
M  V30 4 C -0.3906 -0.7812 0.0000 0
M  V30 5 C -0.3906 0.5859 0.0000 0
M  V30 6 C 0.7812 1.1719 0.0000 0
M  V30 7 C 1.9531 -0.7812 0.0000 0
M  V30 8 N 0.7812 -1.5625 0.0000 0
M  V30 9 N 1.9531 0.3906 0.0000 0
M  V30 10 H -3.5156 -0.1953 0.0000 0
M  V30 11 H -2.1484 2.1484 0.0000 0
M  V30 12 H -1.9531 -2.3438 0.0000 0
M  V30 13 H 0.9766 2.3438 0.0000 0
M  V30 14 H 2.9297 -1.3672 0.0000 0
M  V30 15 H 2.7344 0.9766 0.0000 0
M  V30 END ATOM
M  V30 BEGIN BOND
M  V30 1 2 1 2
M  V30 2 2 1 3
M  V30 3 1 1 10
M  V30 4 1 2 4
M  V30 5 1 2 12
M  V30 6 1 3 5
M  V30 7 1 3 11
M  V30 8 1 4 5
M  V30 9 1 4 8
M  V30 10 2 5 6
M  V30 11 1 6 9
M  V30 12 1 6 13
M  V30 13 1 7 8
M  V30 14 1 7 9
M  V30 15 1 7 14
M  V30 16 1 9 15
M  V30 END BOND
M  V30 END CTAB
M  END
>  <ID>
248
$$$$
Structure_249
Score 	 6.0, smilesprid 	smiles	 smilestrue 	smiles	 similartanimoto 	0	 similardice 	0

   15   16  0  0  0  0            999 V3000
M  V30 BEGIN CTAB
M  V30 COUNTS 15 16 0 0 0
M  V30 BEGIN ATOM
M  V30 1 C -2.5391 -0.1953 0.0000 0
M  V30 2 C -1.7578 -1.3672 0.0000 0
M  V30 3 C -1.7578 0.9766 0.0000 0
M  V30 4 C -0.3906 -0.7812 0.0000 0
M  V30 5 C -0.3906 0.5859 0.0000 0
M  V30 6 C 0.7812 1.1719 0.0000 0
M  V30 7 C 1.9531 -0.7812 0.0000 0
M  V30 8 N 0.7812 -1.5625 0.0000 0
M  V30 9 N 1.9531 0.3906 0.0000 0
M  V30 10 H -3.5156 -0.1953 0.0000 0
M  V30 11 H -2.1484 2.1484 0.0000 0
M  V30 12 H -1.9531 -2.3438 0.0000 0
M  V30 13 H 0.9766 2.3438 0.0000 0
M  V30 14 H 2.9297 -1.3672 0.0000 0
M  V30 15 H 2.7344 0.9766 0.0000 0
M  V30 END ATOM
M  V30 BEGIN BOND
M  V30 1 3 1 2
M  V30 2 2 1 3
M  V30 3 1 1 10
M  V30 4 1 2 4
M  V30 5 1 2 12
M  V30 6 1 3 5
M  V30 7 1 3 11
M  V30 8 1 4 5
M  V30 9 1 4 8
M  V30 10 2 5 6
M  V30 11 1 6 9
M  V30 12 1 6 13
M  V30 13 1 7 8
M  V30 14 1 7 9
M  V30 15 1 7 14
M  V30 16 1 9 15
M  V30 END BOND
M  V30 END CTAB
M  END
>  <ID>
249
$$$$
Structure_250
Score 	 6.0, smilesprid 	smiles	 smilestrue 	smiles	 similartanimoto 	0	 similardice 	0

   15   16  0  0  0  0            999 V3000
M  V30 BEGIN CTAB
M  V30 COUNTS 15 16 0 0 0
M  V30 BEGIN ATOM
M  V30 1 C -2.5391 -0.1953 0.0000 0
M  V30 2 C -1.7578 -1.3672 0.0000 0
M  V30 3 C -1.7578 0.9766 0.0000 0
M  V30 4 C -0.3906 -0.7812 0.0000 0
M  V30 5 C -0.3906 0.5859 0.0000 0
M  V30 6 C 0.7812 1.1719 0.0000 0
M  V30 7 C 1.9531 -0.7812 0.0000 0
M  V30 8 N 0.7812 -1.5625 0.0000 0
M  V30 9 N 1.9531 0.3906 0.0000 0
M  V30 10 H -3.5156 -0.1953 0.0000 0
M  V30 11 H -2.1484 2.1484 0.0000 0
M  V30 12 H -1.9531 -2.3438 0.0000 0
M  V30 13 H 0.9766 2.3438 0.0000 0
M  V30 14 H 2.9297 -1.3672 0.0000 0
M  V30 15 H 2.7344 0.9766 0.0000 0
M  V30 END ATOM
M  V30 BEGIN BOND
M  V30 1 1 1 2
M  V30 2 3 1 3
M  V30 3 1 1 10
M  V30 4 1 2 4
M  V30 5 1 2 12
M  V30 6 1 3 5
M  V30 7 1 3 11
M  V30 8 1 4 5
M  V30 9 1 4 8
M  V30 10 2 5 6
M  V30 11 1 6 9
M  V30 12 1 6 13
M  V30 13 1 7 8
M  V30 14 1 7 9
M  V30 15 1 7 14
M  V30 16 1 9 15
M  V30 END BOND
M  V30 END CTAB
M  END
>  <ID>
250
$$$$
Structure_251
Score 	 6.0, smilesprid 	smiles	 smilestrue 	smiles	 similartanimoto 	0	 similardice 	0

   15   16  0  0  0  0            999 V3000
M  V30 BEGIN CTAB
M  V30 COUNTS 15 16 0 0 0
M  V30 BEGIN ATOM
M  V30 1 C -2.5391 -0.1953 0.0000 0
M  V30 2 C -1.7578 -1.3672 0.0000 0
M  V30 3 C -1.7578 0.9766 0.0000 0
M  V30 4 C -0.3906 -0.7812 0.0000 0
M  V30 5 C -0.3906 0.5859 0.0000 0
M  V30 6 C 0.7812 1.1719 0.0000 0
M  V30 7 C 1.9531 -0.7812 0.0000 0
M  V30 8 N 0.7812 -1.5625 0.0000 0
M  V30 9 N 1.9531 0.3906 0.0000 0
M  V30 10 H -3.5156 -0.1953 0.0000 0
M  V30 11 H -2.1484 2.1484 0.0000 0
M  V30 12 H -1.9531 -2.3438 0.0000 0
M  V30 13 H 0.9766 2.3438 0.0000 0
M  V30 14 H 2.9297 -1.3672 0.0000 0
M  V30 15 H 2.7344 0.9766 0.0000 0
M  V30 END ATOM
M  V30 BEGIN BOND
M  V30 1 2 1 2
M  V30 2 3 1 3
M  V30 3 1 1 10
M  V30 4 1 2 4
M  V30 5 1 2 12
M  V30 6 1 3 5
M  V30 7 1 3 11
M  V30 8 1 4 5
M  V30 9 1 4 8
M  V30 10 2 5 6
M  V30 11 1 6 9
M  V30 12 1 6 13
M  V30 13 1 7 8
M  V30 14 1 7 9
M  V30 15 1 7 14
M  V30 16 1 9 15
M  V30 END BOND
M  V30 END CTAB
M  END
>  <ID>
251
$$$$
Structure_252
Score 	 8.0, smilesprid 	smiles	 smilestrue 	smiles	 similartanimoto 	0	 similardice 	0

   15   16  0  0  0  0            999 V3000
M  V30 BEGIN CTAB
M  V30 COUNTS 15 16 0 0 0
M  V30 BEGIN ATOM
M  V30 1 C -2.5391 -0.1953 0.0000 0
M  V30 2 C -1.7578 -1.3672 0.0000 0
M  V30 3 C -1.7578 0.9766 0.0000 0
M  V30 4 C -0.3906 -0.7812 0.0000 0
M  V30 5 C -0.3906 0.5859 0.0000 0
M  V30 6 C 0.7812 1.1719 0.0000 0
M  V30 7 C 1.9531 -0.7812 0.0000 0
M  V30 8 N 0.7812 -1.5625 0.0000 0
M  V30 9 N 1.9531 0.3906 0.0000 0
M  V30 10 H -3.5156 -0.1953 0.0000 0
M  V30 11 H -2.1484 2.1484 0.0000 0
M  V30 12 H -1.9531 -2.3438 0.0000 0
M  V30 13 H 0.9766 2.3438 0.0000 0
M  V30 14 H 2.9297 -1.3672 0.0000 0
M  V30 15 H 2.7344 0.9766 0.0000 0
M  V30 END ATOM
M  V30 BEGIN BOND
M  V30 1 3 1 2
M  V30 2 3 1 3
M  V30 3 1 1 10
M  V30 4 1 2 4
M  V30 5 1 2 12
M  V30 6 1 3 5
M  V30 7 1 3 11
M  V30 8 1 4 5
M  V30 9 1 4 8
M  V30 10 2 5 6
M  V30 11 1 6 9
M  V30 12 1 6 13
M  V30 13 1 7 8
M  V30 14 1 7 9
M  V30 15 1 7 14
M  V30 16 1 9 15
M  V30 END BOND
M  V30 END CTAB
M  END
>  <ID>
252
$$$$
Structure_253
Score 	 6.0, smilesprid 	smiles	 smilestrue 	smiles	 similartanimoto 	0	 similardice 	0

   15   16  0  0  0  0            999 V3000
M  V30 BEGIN CTAB
M  V30 COUNTS 15 16 0 0 0
M  V30 BEGIN ATOM
M  V30 1 C -2.5391 -0.1953 0.0000 0
M  V30 2 C -1.7578 -1.3672 0.0000 0
M  V30 3 C -1.7578 0.9766 0.0000 0
M  V30 4 C -0.3906 -0.7812 0.0000 0
M  V30 5 C -0.3906 0.5859 0.0000 0
M  V30 6 C 0.7812 1.1719 0.0000 0
M  V30 7 C 1.9531 -0.7812 0.0000 0
M  V30 8 N 0.7812 -1.5625 0.0000 0
M  V30 9 N 1.9531 0.3906 0.0000 0
M  V30 10 H -3.5156 -0.1953 0.0000 0
M  V30 11 H -2.1484 2.1484 0.0000 0
M  V30 12 H -1.9531 -2.3438 0.0000 0
M  V30 13 H 0.9766 2.3438 0.0000 0
M  V30 14 H 2.9297 -1.3672 0.0000 0
M  V30 15 H 2.7344 0.9766 0.0000 0
M  V30 END ATOM
M  V30 BEGIN BOND
M  V30 1 1 1 2
M  V30 2 1 1 3
M  V30 3 1 1 10
M  V30 4 1 2 4
M  V30 5 1 2 12
M  V30 6 2 3 5
M  V30 7 1 3 11
M  V30 8 1 4 5
M  V30 9 1 4 8
M  V30 10 2 5 6
M  V30 11 1 6 9
M  V30 12 1 6 13
M  V30 13 1 7 8
M  V30 14 1 7 9
M  V30 15 1 7 14
M  V30 16 1 9 15
M  V30 END BOND
M  V30 END CTAB
M  END
>  <ID>
253
$$$$
Structure_254
Score 	 4.0, smilesprid 	smiles	 smilestrue 	smiles	 similartanimoto 	0	 similardice 	0

   15   16  0  0  0  0            999 V3000
M  V30 BEGIN CTAB
M  V30 COUNTS 15 16 0 0 0
M  V30 BEGIN ATOM
M  V30 1 C -2.5391 -0.1953 0.0000 0
M  V30 2 C -1.7578 -1.3672 0.0000 0
M  V30 3 C -1.7578 0.9766 0.0000 0
M  V30 4 C -0.3906 -0.7812 0.0000 0
M  V30 5 C -0.3906 0.5859 0.0000 0
M  V30 6 C 0.7812 1.1719 0.0000 0
M  V30 7 C 1.9531 -0.7812 0.0000 0
M  V30 8 N 0.7812 -1.5625 0.0000 0
M  V30 9 N 1.9531 0.3906 0.0000 0
M  V30 10 H -3.5156 -0.1953 0.0000 0
M  V30 11 H -2.1484 2.1484 0.0000 0
M  V30 12 H -1.9531 -2.3438 0.0000 0
M  V30 13 H 0.9766 2.3438 0.0000 0
M  V30 14 H 2.9297 -1.3672 0.0000 0
M  V30 15 H 2.7344 0.9766 0.0000 0
M  V30 END ATOM
M  V30 BEGIN BOND
M  V30 1 2 1 2
M  V30 2 1 1 3
M  V30 3 1 1 10
M  V30 4 1 2 4
M  V30 5 1 2 12
M  V30 6 2 3 5
M  V30 7 1 3 11
M  V30 8 1 4 5
M  V30 9 1 4 8
M  V30 10 2 5 6
M  V30 11 1 6 9
M  V30 12 1 6 13
M  V30 13 1 7 8
M  V30 14 1 7 9
M  V30 15 1 7 14
M  V30 16 1 9 15
M  V30 END BOND
M  V30 END CTAB
M  END
>  <ID>
254
$$$$
Structure_255
Score 	 6.0, smilesprid 	smiles	 smilestrue 	smiles	 similartanimoto 	0	 similardice 	0

   15   16  0  0  0  0            999 V3000
M  V30 BEGIN CTAB
M  V30 COUNTS 15 16 0 0 0
M  V30 BEGIN ATOM
M  V30 1 C -2.5391 -0.1953 0.0000 0
M  V30 2 C -1.7578 -1.3672 0.0000 0
M  V30 3 C -1.7578 0.9766 0.0000 0
M  V30 4 C -0.3906 -0.7812 0.0000 0
M  V30 5 C -0.3906 0.5859 0.0000 0
M  V30 6 C 0.7812 1.1719 0.0000 0
M  V30 7 C 1.9531 -0.7812 0.0000 0
M  V30 8 N 0.7812 -1.5625 0.0000 0
M  V30 9 N 1.9531 0.3906 0.0000 0
M  V30 10 H -3.5156 -0.1953 0.0000 0
M  V30 11 H -2.1484 2.1484 0.0000 0
M  V30 12 H -1.9531 -2.3438 0.0000 0
M  V30 13 H 0.9766 2.3438 0.0000 0
M  V30 14 H 2.9297 -1.3672 0.0000 0
M  V30 15 H 2.7344 0.9766 0.0000 0
M  V30 END ATOM
M  V30 BEGIN BOND
M  V30 1 3 1 2
M  V30 2 1 1 3
M  V30 3 1 1 10
M  V30 4 1 2 4
M  V30 5 1 2 12
M  V30 6 2 3 5
M  V30 7 1 3 11
M  V30 8 1 4 5
M  V30 9 1 4 8
M  V30 10 2 5 6
M  V30 11 1 6 9
M  V30 12 1 6 13
M  V30 13 1 7 8
M  V30 14 1 7 9
M  V30 15 1 7 14
M  V30 16 1 9 15
M  V30 END BOND
M  V30 END CTAB
M  END
>  <ID>
255
$$$$
Structure_256
Score 	 6.0, smilesprid 	smiles	 smilestrue 	smiles	 similartanimoto 	0	 similardice 	0

   15   16  0  0  0  0            999 V3000
M  V30 BEGIN CTAB
M  V30 COUNTS 15 16 0 0 0
M  V30 BEGIN ATOM
M  V30 1 C -2.5391 -0.1953 0.0000 0
M  V30 2 C -1.7578 -1.3672 0.0000 0
M  V30 3 C -1.7578 0.9766 0.0000 0
M  V30 4 C -0.3906 -0.7812 0.0000 0
M  V30 5 C -0.3906 0.5859 0.0000 0
M  V30 6 C 0.7812 1.1719 0.0000 0
M  V30 7 C 1.9531 -0.7812 0.0000 0
M  V30 8 N 0.7812 -1.5625 0.0000 0
M  V30 9 N 1.9531 0.3906 0.0000 0
M  V30 10 H -3.5156 -0.1953 0.0000 0
M  V30 11 H -2.1484 2.1484 0.0000 0
M  V30 12 H -1.9531 -2.3438 0.0000 0
M  V30 13 H 0.9766 2.3438 0.0000 0
M  V30 14 H 2.9297 -1.3672 0.0000 0
M  V30 15 H 2.7344 0.9766 0.0000 0
M  V30 END ATOM
M  V30 BEGIN BOND
M  V30 1 1 1 2
M  V30 2 2 1 3
M  V30 3 1 1 10
M  V30 4 1 2 4
M  V30 5 1 2 12
M  V30 6 2 3 5
M  V30 7 1 3 11
M  V30 8 1 4 5
M  V30 9 1 4 8
M  V30 10 2 5 6
M  V30 11 1 6 9
M  V30 12 1 6 13
M  V30 13 1 7 8
M  V30 14 1 7 9
M  V30 15 1 7 14
M  V30 16 1 9 15
M  V30 END BOND
M  V30 END CTAB
M  END
>  <ID>
256
$$$$
Structure_257
Score 	 6.0, smilesprid 	smiles	 smilestrue 	smiles	 similartanimoto 	0	 similardice 	0

   15   16  0  0  0  0            999 V3000
M  V30 BEGIN CTAB
M  V30 COUNTS 15 16 0 0 0
M  V30 BEGIN ATOM
M  V30 1 C -2.5391 -0.1953 0.0000 0
M  V30 2 C -1.7578 -1.3672 0.0000 0
M  V30 3 C -1.7578 0.9766 0.0000 0
M  V30 4 C -0.3906 -0.7812 0.0000 0
M  V30 5 C -0.3906 0.5859 0.0000 0
M  V30 6 C 0.7812 1.1719 0.0000 0
M  V30 7 C 1.9531 -0.7812 0.0000 0
M  V30 8 N 0.7812 -1.5625 0.0000 0
M  V30 9 N 1.9531 0.3906 0.0000 0
M  V30 10 H -3.5156 -0.1953 0.0000 0
M  V30 11 H -2.1484 2.1484 0.0000 0
M  V30 12 H -1.9531 -2.3438 0.0000 0
M  V30 13 H 0.9766 2.3438 0.0000 0
M  V30 14 H 2.9297 -1.3672 0.0000 0
M  V30 15 H 2.7344 0.9766 0.0000 0
M  V30 END ATOM
M  V30 BEGIN BOND
M  V30 1 2 1 2
M  V30 2 2 1 3
M  V30 3 1 1 10
M  V30 4 1 2 4
M  V30 5 1 2 12
M  V30 6 2 3 5
M  V30 7 1 3 11
M  V30 8 1 4 5
M  V30 9 1 4 8
M  V30 10 2 5 6
M  V30 11 1 6 9
M  V30 12 1 6 13
M  V30 13 1 7 8
M  V30 14 1 7 9
M  V30 15 1 7 14
M  V30 16 1 9 15
M  V30 END BOND
M  V30 END CTAB
M  END
>  <ID>
257
$$$$
Structure_258
Score 	 8.0, smilesprid 	smiles	 smilestrue 	smiles	 similartanimoto 	0	 similardice 	0

   15   16  0  0  0  0            999 V3000
M  V30 BEGIN CTAB
M  V30 COUNTS 15 16 0 0 0
M  V30 BEGIN ATOM
M  V30 1 C -2.5391 -0.1953 0.0000 0
M  V30 2 C -1.7578 -1.3672 0.0000 0
M  V30 3 C -1.7578 0.9766 0.0000 0
M  V30 4 C -0.3906 -0.7812 0.0000 0
M  V30 5 C -0.3906 0.5859 0.0000 0
M  V30 6 C 0.7812 1.1719 0.0000 0
M  V30 7 C 1.9531 -0.7812 0.0000 0
M  V30 8 N 0.7812 -1.5625 0.0000 0
M  V30 9 N 1.9531 0.3906 0.0000 0
M  V30 10 H -3.5156 -0.1953 0.0000 0
M  V30 11 H -2.1484 2.1484 0.0000 0
M  V30 12 H -1.9531 -2.3438 0.0000 0
M  V30 13 H 0.9766 2.3438 0.0000 0
M  V30 14 H 2.9297 -1.3672 0.0000 0
M  V30 15 H 2.7344 0.9766 0.0000 0
M  V30 END ATOM
M  V30 BEGIN BOND
M  V30 1 3 1 2
M  V30 2 2 1 3
M  V30 3 1 1 10
M  V30 4 1 2 4
M  V30 5 1 2 12
M  V30 6 2 3 5
M  V30 7 1 3 11
M  V30 8 1 4 5
M  V30 9 1 4 8
M  V30 10 2 5 6
M  V30 11 1 6 9
M  V30 12 1 6 13
M  V30 13 1 7 8
M  V30 14 1 7 9
M  V30 15 1 7 14
M  V30 16 1 9 15
M  V30 END BOND
M  V30 END CTAB
M  END
>  <ID>
258
$$$$
Structure_259
Score 	 8.0, smilesprid 	smiles	 smilestrue 	smiles	 similartanimoto 	0	 similardice 	0

   15   16  0  0  0  0            999 V3000
M  V30 BEGIN CTAB
M  V30 COUNTS 15 16 0 0 0
M  V30 BEGIN ATOM
M  V30 1 C -2.5391 -0.1953 0.0000 0
M  V30 2 C -1.7578 -1.3672 0.0000 0
M  V30 3 C -1.7578 0.9766 0.0000 0
M  V30 4 C -0.3906 -0.7812 0.0000 0
M  V30 5 C -0.3906 0.5859 0.0000 0
M  V30 6 C 0.7812 1.1719 0.0000 0
M  V30 7 C 1.9531 -0.7812 0.0000 0
M  V30 8 N 0.7812 -1.5625 0.0000 0
M  V30 9 N 1.9531 0.3906 0.0000 0
M  V30 10 H -3.5156 -0.1953 0.0000 0
M  V30 11 H -2.1484 2.1484 0.0000 0
M  V30 12 H -1.9531 -2.3438 0.0000 0
M  V30 13 H 0.9766 2.3438 0.0000 0
M  V30 14 H 2.9297 -1.3672 0.0000 0
M  V30 15 H 2.7344 0.9766 0.0000 0
M  V30 END ATOM
M  V30 BEGIN BOND
M  V30 1 1 1 2
M  V30 2 3 1 3
M  V30 3 1 1 10
M  V30 4 1 2 4
M  V30 5 1 2 12
M  V30 6 2 3 5
M  V30 7 1 3 11
M  V30 8 1 4 5
M  V30 9 1 4 8
M  V30 10 2 5 6
M  V30 11 1 6 9
M  V30 12 1 6 13
M  V30 13 1 7 8
M  V30 14 1 7 9
M  V30 15 1 7 14
M  V30 16 1 9 15
M  V30 END BOND
M  V30 END CTAB
M  END
>  <ID>
259
$$$$
Structure_260
Score 	 8.0, smilesprid 	smiles	 smilestrue 	smiles	 similartanimoto 	0	 similardice 	0

   15   16  0  0  0  0            999 V3000
M  V30 BEGIN CTAB
M  V30 COUNTS 15 16 0 0 0
M  V30 BEGIN ATOM
M  V30 1 C -2.5391 -0.1953 0.0000 0
M  V30 2 C -1.7578 -1.3672 0.0000 0
M  V30 3 C -1.7578 0.9766 0.0000 0
M  V30 4 C -0.3906 -0.7812 0.0000 0
M  V30 5 C -0.3906 0.5859 0.0000 0
M  V30 6 C 0.7812 1.1719 0.0000 0
M  V30 7 C 1.9531 -0.7812 0.0000 0
M  V30 8 N 0.7812 -1.5625 0.0000 0
M  V30 9 N 1.9531 0.3906 0.0000 0
M  V30 10 H -3.5156 -0.1953 0.0000 0
M  V30 11 H -2.1484 2.1484 0.0000 0
M  V30 12 H -1.9531 -2.3438 0.0000 0
M  V30 13 H 0.9766 2.3438 0.0000 0
M  V30 14 H 2.9297 -1.3672 0.0000 0
M  V30 15 H 2.7344 0.9766 0.0000 0
M  V30 END ATOM
M  V30 BEGIN BOND
M  V30 1 2 1 2
M  V30 2 3 1 3
M  V30 3 1 1 10
M  V30 4 1 2 4
M  V30 5 1 2 12
M  V30 6 2 3 5
M  V30 7 1 3 11
M  V30 8 1 4 5
M  V30 9 1 4 8
M  V30 10 2 5 6
M  V30 11 1 6 9
M  V30 12 1 6 13
M  V30 13 1 7 8
M  V30 14 1 7 9
M  V30 15 1 7 14
M  V30 16 1 9 15
M  V30 END BOND
M  V30 END CTAB
M  END
>  <ID>
260
$$$$
Structure_261
Score 	 10.0, smilesprid 	smiles	 smilestrue 	smiles	 similartanimoto 	0	 similardice 	0

   15   16  0  0  0  0            999 V3000
M  V30 BEGIN CTAB
M  V30 COUNTS 15 16 0 0 0
M  V30 BEGIN ATOM
M  V30 1 C -2.5391 -0.1953 0.0000 0
M  V30 2 C -1.7578 -1.3672 0.0000 0
M  V30 3 C -1.7578 0.9766 0.0000 0
M  V30 4 C -0.3906 -0.7812 0.0000 0
M  V30 5 C -0.3906 0.5859 0.0000 0
M  V30 6 C 0.7812 1.1719 0.0000 0
M  V30 7 C 1.9531 -0.7812 0.0000 0
M  V30 8 N 0.7812 -1.5625 0.0000 0
M  V30 9 N 1.9531 0.3906 0.0000 0
M  V30 10 H -3.5156 -0.1953 0.0000 0
M  V30 11 H -2.1484 2.1484 0.0000 0
M  V30 12 H -1.9531 -2.3438 0.0000 0
M  V30 13 H 0.9766 2.3438 0.0000 0
M  V30 14 H 2.9297 -1.3672 0.0000 0
M  V30 15 H 2.7344 0.9766 0.0000 0
M  V30 END ATOM
M  V30 BEGIN BOND
M  V30 1 3 1 2
M  V30 2 3 1 3
M  V30 3 1 1 10
M  V30 4 1 2 4
M  V30 5 1 2 12
M  V30 6 2 3 5
M  V30 7 1 3 11
M  V30 8 1 4 5
M  V30 9 1 4 8
M  V30 10 2 5 6
M  V30 11 1 6 9
M  V30 12 1 6 13
M  V30 13 1 7 8
M  V30 14 1 7 9
M  V30 15 1 7 14
M  V30 16 1 9 15
M  V30 END BOND
M  V30 END CTAB
M  END
>  <ID>
261
$$$$
Structure_262
Score 	 8.0, smilesprid 	smiles	 smilestrue 	smiles	 similartanimoto 	0	 similardice 	0

   15   16  0  0  0  0            999 V3000
M  V30 BEGIN CTAB
M  V30 COUNTS 15 16 0 0 0
M  V30 BEGIN ATOM
M  V30 1 C -2.5391 -0.1953 0.0000 0
M  V30 2 C -1.7578 -1.3672 0.0000 0
M  V30 3 C -1.7578 0.9766 0.0000 0
M  V30 4 C -0.3906 -0.7812 0.0000 0
M  V30 5 C -0.3906 0.5859 0.0000 0
M  V30 6 C 0.7812 1.1719 0.0000 0
M  V30 7 C 1.9531 -0.7812 0.0000 0
M  V30 8 N 0.7812 -1.5625 0.0000 0
M  V30 9 N 1.9531 0.3906 0.0000 0
M  V30 10 H -3.5156 -0.1953 0.0000 0
M  V30 11 H -2.1484 2.1484 0.0000 0
M  V30 12 H -1.9531 -2.3438 0.0000 0
M  V30 13 H 0.9766 2.3438 0.0000 0
M  V30 14 H 2.9297 -1.3672 0.0000 0
M  V30 15 H 2.7344 0.9766 0.0000 0
M  V30 END ATOM
M  V30 BEGIN BOND
M  V30 1 1 1 2
M  V30 2 1 1 3
M  V30 3 1 1 10
M  V30 4 1 2 4
M  V30 5 1 2 12
M  V30 6 3 3 5
M  V30 7 1 3 11
M  V30 8 1 4 5
M  V30 9 1 4 8
M  V30 10 2 5 6
M  V30 11 1 6 9
M  V30 12 1 6 13
M  V30 13 1 7 8
M  V30 14 1 7 9
M  V30 15 1 7 14
M  V30 16 1 9 15
M  V30 END BOND
M  V30 END CTAB
M  END
>  <ID>
262
$$$$
Structure_263
Score 	 6.0, smilesprid 	smiles	 smilestrue 	smiles	 similartanimoto 	0	 similardice 	0

   15   16  0  0  0  0            999 V3000
M  V30 BEGIN CTAB
M  V30 COUNTS 15 16 0 0 0
M  V30 BEGIN ATOM
M  V30 1 C -2.5391 -0.1953 0.0000 0
M  V30 2 C -1.7578 -1.3672 0.0000 0
M  V30 3 C -1.7578 0.9766 0.0000 0
M  V30 4 C -0.3906 -0.7812 0.0000 0
M  V30 5 C -0.3906 0.5859 0.0000 0
M  V30 6 C 0.7812 1.1719 0.0000 0
M  V30 7 C 1.9531 -0.7812 0.0000 0
M  V30 8 N 0.7812 -1.5625 0.0000 0
M  V30 9 N 1.9531 0.3906 0.0000 0
M  V30 10 H -3.5156 -0.1953 0.0000 0
M  V30 11 H -2.1484 2.1484 0.0000 0
M  V30 12 H -1.9531 -2.3438 0.0000 0
M  V30 13 H 0.9766 2.3438 0.0000 0
M  V30 14 H 2.9297 -1.3672 0.0000 0
M  V30 15 H 2.7344 0.9766 0.0000 0
M  V30 END ATOM
M  V30 BEGIN BOND
M  V30 1 2 1 2
M  V30 2 1 1 3
M  V30 3 1 1 10
M  V30 4 1 2 4
M  V30 5 1 2 12
M  V30 6 3 3 5
M  V30 7 1 3 11
M  V30 8 1 4 5
M  V30 9 1 4 8
M  V30 10 2 5 6
M  V30 11 1 6 9
M  V30 12 1 6 13
M  V30 13 1 7 8
M  V30 14 1 7 9
M  V30 15 1 7 14
M  V30 16 1 9 15
M  V30 END BOND
M  V30 END CTAB
M  END
>  <ID>
263
$$$$
Structure_264
Score 	 8.0, smilesprid 	smiles	 smilestrue 	smiles	 similartanimoto 	0	 similardice 	0

   15   16  0  0  0  0            999 V3000
M  V30 BEGIN CTAB
M  V30 COUNTS 15 16 0 0 0
M  V30 BEGIN ATOM
M  V30 1 C -2.5391 -0.1953 0.0000 0
M  V30 2 C -1.7578 -1.3672 0.0000 0
M  V30 3 C -1.7578 0.9766 0.0000 0
M  V30 4 C -0.3906 -0.7812 0.0000 0
M  V30 5 C -0.3906 0.5859 0.0000 0
M  V30 6 C 0.7812 1.1719 0.0000 0
M  V30 7 C 1.9531 -0.7812 0.0000 0
M  V30 8 N 0.7812 -1.5625 0.0000 0
M  V30 9 N 1.9531 0.3906 0.0000 0
M  V30 10 H -3.5156 -0.1953 0.0000 0
M  V30 11 H -2.1484 2.1484 0.0000 0
M  V30 12 H -1.9531 -2.3438 0.0000 0
M  V30 13 H 0.9766 2.3438 0.0000 0
M  V30 14 H 2.9297 -1.3672 0.0000 0
M  V30 15 H 2.7344 0.9766 0.0000 0
M  V30 END ATOM
M  V30 BEGIN BOND
M  V30 1 3 1 2
M  V30 2 1 1 3
M  V30 3 1 1 10
M  V30 4 1 2 4
M  V30 5 1 2 12
M  V30 6 3 3 5
M  V30 7 1 3 11
M  V30 8 1 4 5
M  V30 9 1 4 8
M  V30 10 2 5 6
M  V30 11 1 6 9
M  V30 12 1 6 13
M  V30 13 1 7 8
M  V30 14 1 7 9
M  V30 15 1 7 14
M  V30 16 1 9 15
M  V30 END BOND
M  V30 END CTAB
M  END
>  <ID>
264
$$$$
Structure_265
Score 	 8.0, smilesprid 	smiles	 smilestrue 	smiles	 similartanimoto 	0	 similardice 	0

   15   16  0  0  0  0            999 V3000
M  V30 BEGIN CTAB
M  V30 COUNTS 15 16 0 0 0
M  V30 BEGIN ATOM
M  V30 1 C -2.5391 -0.1953 0.0000 0
M  V30 2 C -1.7578 -1.3672 0.0000 0
M  V30 3 C -1.7578 0.9766 0.0000 0
M  V30 4 C -0.3906 -0.7812 0.0000 0
M  V30 5 C -0.3906 0.5859 0.0000 0
M  V30 6 C 0.7812 1.1719 0.0000 0
M  V30 7 C 1.9531 -0.7812 0.0000 0
M  V30 8 N 0.7812 -1.5625 0.0000 0
M  V30 9 N 1.9531 0.3906 0.0000 0
M  V30 10 H -3.5156 -0.1953 0.0000 0
M  V30 11 H -2.1484 2.1484 0.0000 0
M  V30 12 H -1.9531 -2.3438 0.0000 0
M  V30 13 H 0.9766 2.3438 0.0000 0
M  V30 14 H 2.9297 -1.3672 0.0000 0
M  V30 15 H 2.7344 0.9766 0.0000 0
M  V30 END ATOM
M  V30 BEGIN BOND
M  V30 1 1 1 2
M  V30 2 2 1 3
M  V30 3 1 1 10
M  V30 4 1 2 4
M  V30 5 1 2 12
M  V30 6 3 3 5
M  V30 7 1 3 11
M  V30 8 1 4 5
M  V30 9 1 4 8
M  V30 10 2 5 6
M  V30 11 1 6 9
M  V30 12 1 6 13
M  V30 13 1 7 8
M  V30 14 1 7 9
M  V30 15 1 7 14
M  V30 16 1 9 15
M  V30 END BOND
M  V30 END CTAB
M  END
>  <ID>
265
$$$$
Structure_266
Score 	 8.0, smilesprid 	smiles	 smilestrue 	smiles	 similartanimoto 	0	 similardice 	0

   15   16  0  0  0  0            999 V3000
M  V30 BEGIN CTAB
M  V30 COUNTS 15 16 0 0 0
M  V30 BEGIN ATOM
M  V30 1 C -2.5391 -0.1953 0.0000 0
M  V30 2 C -1.7578 -1.3672 0.0000 0
M  V30 3 C -1.7578 0.9766 0.0000 0
M  V30 4 C -0.3906 -0.7812 0.0000 0
M  V30 5 C -0.3906 0.5859 0.0000 0
M  V30 6 C 0.7812 1.1719 0.0000 0
M  V30 7 C 1.9531 -0.7812 0.0000 0
M  V30 8 N 0.7812 -1.5625 0.0000 0
M  V30 9 N 1.9531 0.3906 0.0000 0
M  V30 10 H -3.5156 -0.1953 0.0000 0
M  V30 11 H -2.1484 2.1484 0.0000 0
M  V30 12 H -1.9531 -2.3438 0.0000 0
M  V30 13 H 0.9766 2.3438 0.0000 0
M  V30 14 H 2.9297 -1.3672 0.0000 0
M  V30 15 H 2.7344 0.9766 0.0000 0
M  V30 END ATOM
M  V30 BEGIN BOND
M  V30 1 2 1 2
M  V30 2 2 1 3
M  V30 3 1 1 10
M  V30 4 1 2 4
M  V30 5 1 2 12
M  V30 6 3 3 5
M  V30 7 1 3 11
M  V30 8 1 4 5
M  V30 9 1 4 8
M  V30 10 2 5 6
M  V30 11 1 6 9
M  V30 12 1 6 13
M  V30 13 1 7 8
M  V30 14 1 7 9
M  V30 15 1 7 14
M  V30 16 1 9 15
M  V30 END BOND
M  V30 END CTAB
M  END
>  <ID>
266
$$$$
Structure_267
Score 	 10.0, smilesprid 	smiles	 smilestrue 	smiles	 similartanimoto 	0	 similardice 	0

   15   16  0  0  0  0            999 V3000
M  V30 BEGIN CTAB
M  V30 COUNTS 15 16 0 0 0
M  V30 BEGIN ATOM
M  V30 1 C -2.5391 -0.1953 0.0000 0
M  V30 2 C -1.7578 -1.3672 0.0000 0
M  V30 3 C -1.7578 0.9766 0.0000 0
M  V30 4 C -0.3906 -0.7812 0.0000 0
M  V30 5 C -0.3906 0.5859 0.0000 0
M  V30 6 C 0.7812 1.1719 0.0000 0
M  V30 7 C 1.9531 -0.7812 0.0000 0
M  V30 8 N 0.7812 -1.5625 0.0000 0
M  V30 9 N 1.9531 0.3906 0.0000 0
M  V30 10 H -3.5156 -0.1953 0.0000 0
M  V30 11 H -2.1484 2.1484 0.0000 0
M  V30 12 H -1.9531 -2.3438 0.0000 0
M  V30 13 H 0.9766 2.3438 0.0000 0
M  V30 14 H 2.9297 -1.3672 0.0000 0
M  V30 15 H 2.7344 0.9766 0.0000 0
M  V30 END ATOM
M  V30 BEGIN BOND
M  V30 1 3 1 2
M  V30 2 2 1 3
M  V30 3 1 1 10
M  V30 4 1 2 4
M  V30 5 1 2 12
M  V30 6 3 3 5
M  V30 7 1 3 11
M  V30 8 1 4 5
M  V30 9 1 4 8
M  V30 10 2 5 6
M  V30 11 1 6 9
M  V30 12 1 6 13
M  V30 13 1 7 8
M  V30 14 1 7 9
M  V30 15 1 7 14
M  V30 16 1 9 15
M  V30 END BOND
M  V30 END CTAB
M  END
>  <ID>
267
$$$$
Structure_268
Score 	 10.0, smilesprid 	smiles	 smilestrue 	smiles	 similartanimoto 	0	 similardice 	0

   15   16  0  0  0  0            999 V3000
M  V30 BEGIN CTAB
M  V30 COUNTS 15 16 0 0 0
M  V30 BEGIN ATOM
M  V30 1 C -2.5391 -0.1953 0.0000 0
M  V30 2 C -1.7578 -1.3672 0.0000 0
M  V30 3 C -1.7578 0.9766 0.0000 0
M  V30 4 C -0.3906 -0.7812 0.0000 0
M  V30 5 C -0.3906 0.5859 0.0000 0
M  V30 6 C 0.7812 1.1719 0.0000 0
M  V30 7 C 1.9531 -0.7812 0.0000 0
M  V30 8 N 0.7812 -1.5625 0.0000 0
M  V30 9 N 1.9531 0.3906 0.0000 0
M  V30 10 H -3.5156 -0.1953 0.0000 0
M  V30 11 H -2.1484 2.1484 0.0000 0
M  V30 12 H -1.9531 -2.3438 0.0000 0
M  V30 13 H 0.9766 2.3438 0.0000 0
M  V30 14 H 2.9297 -1.3672 0.0000 0
M  V30 15 H 2.7344 0.9766 0.0000 0
M  V30 END ATOM
M  V30 BEGIN BOND
M  V30 1 1 1 2
M  V30 2 3 1 3
M  V30 3 1 1 10
M  V30 4 1 2 4
M  V30 5 1 2 12
M  V30 6 3 3 5
M  V30 7 1 3 11
M  V30 8 1 4 5
M  V30 9 1 4 8
M  V30 10 2 5 6
M  V30 11 1 6 9
M  V30 12 1 6 13
M  V30 13 1 7 8
M  V30 14 1 7 9
M  V30 15 1 7 14
M  V30 16 1 9 15
M  V30 END BOND
M  V30 END CTAB
M  END
>  <ID>
268
$$$$
Structure_269
Score 	 10.0, smilesprid 	smiles	 smilestrue 	smiles	 similartanimoto 	0	 similardice 	0

   15   16  0  0  0  0            999 V3000
M  V30 BEGIN CTAB
M  V30 COUNTS 15 16 0 0 0
M  V30 BEGIN ATOM
M  V30 1 C -2.5391 -0.1953 0.0000 0
M  V30 2 C -1.7578 -1.3672 0.0000 0
M  V30 3 C -1.7578 0.9766 0.0000 0
M  V30 4 C -0.3906 -0.7812 0.0000 0
M  V30 5 C -0.3906 0.5859 0.0000 0
M  V30 6 C 0.7812 1.1719 0.0000 0
M  V30 7 C 1.9531 -0.7812 0.0000 0
M  V30 8 N 0.7812 -1.5625 0.0000 0
M  V30 9 N 1.9531 0.3906 0.0000 0
M  V30 10 H -3.5156 -0.1953 0.0000 0
M  V30 11 H -2.1484 2.1484 0.0000 0
M  V30 12 H -1.9531 -2.3438 0.0000 0
M  V30 13 H 0.9766 2.3438 0.0000 0
M  V30 14 H 2.9297 -1.3672 0.0000 0
M  V30 15 H 2.7344 0.9766 0.0000 0
M  V30 END ATOM
M  V30 BEGIN BOND
M  V30 1 2 1 2
M  V30 2 3 1 3
M  V30 3 1 1 10
M  V30 4 1 2 4
M  V30 5 1 2 12
M  V30 6 3 3 5
M  V30 7 1 3 11
M  V30 8 1 4 5
M  V30 9 1 4 8
M  V30 10 2 5 6
M  V30 11 1 6 9
M  V30 12 1 6 13
M  V30 13 1 7 8
M  V30 14 1 7 9
M  V30 15 1 7 14
M  V30 16 1 9 15
M  V30 END BOND
M  V30 END CTAB
M  END
>  <ID>
269
$$$$
Structure_270
Score 	 12.0, smilesprid 	smiles	 smilestrue 	smiles	 similartanimoto 	0	 similardice 	0

   15   16  0  0  0  0            999 V3000
M  V30 BEGIN CTAB
M  V30 COUNTS 15 16 0 0 0
M  V30 BEGIN ATOM
M  V30 1 C -2.5391 -0.1953 0.0000 0
M  V30 2 C -1.7578 -1.3672 0.0000 0
M  V30 3 C -1.7578 0.9766 0.0000 0
M  V30 4 C -0.3906 -0.7812 0.0000 0
M  V30 5 C -0.3906 0.5859 0.0000 0
M  V30 6 C 0.7812 1.1719 0.0000 0
M  V30 7 C 1.9531 -0.7812 0.0000 0
M  V30 8 N 0.7812 -1.5625 0.0000 0
M  V30 9 N 1.9531 0.3906 0.0000 0
M  V30 10 H -3.5156 -0.1953 0.0000 0
M  V30 11 H -2.1484 2.1484 0.0000 0
M  V30 12 H -1.9531 -2.3438 0.0000 0
M  V30 13 H 0.9766 2.3438 0.0000 0
M  V30 14 H 2.9297 -1.3672 0.0000 0
M  V30 15 H 2.7344 0.9766 0.0000 0
M  V30 END ATOM
M  V30 BEGIN BOND
M  V30 1 3 1 2
M  V30 2 3 1 3
M  V30 3 1 1 10
M  V30 4 1 2 4
M  V30 5 1 2 12
M  V30 6 3 3 5
M  V30 7 1 3 11
M  V30 8 1 4 5
M  V30 9 1 4 8
M  V30 10 2 5 6
M  V30 11 1 6 9
M  V30 12 1 6 13
M  V30 13 1 7 8
M  V30 14 1 7 9
M  V30 15 1 7 14
M  V30 16 1 9 15
M  V30 END BOND
M  V30 END CTAB
M  END
>  <ID>
270
$$$$
Structure_271
Score 	 4.0, smilesprid 	smiles	 smilestrue 	smiles	 similartanimoto 	0	 similardice 	0

   15   16  0  0  0  0            999 V3000
M  V30 BEGIN CTAB
M  V30 COUNTS 15 16 0 0 0
M  V30 BEGIN ATOM
M  V30 1 C -2.5391 -0.1953 0.0000 0
M  V30 2 C -1.7578 -1.3672 0.0000 0
M  V30 3 C -1.7578 0.9766 0.0000 0
M  V30 4 C -0.3906 -0.7812 0.0000 0
M  V30 5 C -0.3906 0.5859 0.0000 0
M  V30 6 C 0.7812 1.1719 0.0000 0
M  V30 7 C 1.9531 -0.7812 0.0000 0
M  V30 8 N 0.7812 -1.5625 0.0000 0
M  V30 9 N 1.9531 0.3906 0.0000 0
M  V30 10 H -3.5156 -0.1953 0.0000 0
M  V30 11 H -2.1484 2.1484 0.0000 0
M  V30 12 H -1.9531 -2.3438 0.0000 0
M  V30 13 H 0.9766 2.3438 0.0000 0
M  V30 14 H 2.9297 -1.3672 0.0000 0
M  V30 15 H 2.7344 0.9766 0.0000 0
M  V30 END ATOM
M  V30 BEGIN BOND
M  V30 1 1 1 2
M  V30 2 1 1 3
M  V30 3 1 1 10
M  V30 4 2 2 4
M  V30 5 1 2 12
M  V30 6 1 3 5
M  V30 7 1 3 11
M  V30 8 1 4 5
M  V30 9 1 4 8
M  V30 10 2 5 6
M  V30 11 1 6 9
M  V30 12 1 6 13
M  V30 13 1 7 8
M  V30 14 1 7 9
M  V30 15 1 7 14
M  V30 16 1 9 15
M  V30 END BOND
M  V30 END CTAB
M  END
>  <ID>
271
$$$$
Structure_272
Score 	 4.0, smilesprid 	smiles	 smilestrue 	smiles	 similartanimoto 	0	 similardice 	0

   15   16  0  0  0  0            999 V3000
M  V30 BEGIN CTAB
M  V30 COUNTS 15 16 0 0 0
M  V30 BEGIN ATOM
M  V30 1 C -2.5391 -0.1953 0.0000 0
M  V30 2 C -1.7578 -1.3672 0.0000 0
M  V30 3 C -1.7578 0.9766 0.0000 0
M  V30 4 C -0.3906 -0.7812 0.0000 0
M  V30 5 C -0.3906 0.5859 0.0000 0
M  V30 6 C 0.7812 1.1719 0.0000 0
M  V30 7 C 1.9531 -0.7812 0.0000 0
M  V30 8 N 0.7812 -1.5625 0.0000 0
M  V30 9 N 1.9531 0.3906 0.0000 0
M  V30 10 H -3.5156 -0.1953 0.0000 0
M  V30 11 H -2.1484 2.1484 0.0000 0
M  V30 12 H -1.9531 -2.3438 0.0000 0
M  V30 13 H 0.9766 2.3438 0.0000 0
M  V30 14 H 2.9297 -1.3672 0.0000 0
M  V30 15 H 2.7344 0.9766 0.0000 0
M  V30 END ATOM
M  V30 BEGIN BOND
M  V30 1 2 1 2
M  V30 2 1 1 3
M  V30 3 1 1 10
M  V30 4 2 2 4
M  V30 5 1 2 12
M  V30 6 1 3 5
M  V30 7 1 3 11
M  V30 8 1 4 5
M  V30 9 1 4 8
M  V30 10 2 5 6
M  V30 11 1 6 9
M  V30 12 1 6 13
M  V30 13 1 7 8
M  V30 14 1 7 9
M  V30 15 1 7 14
M  V30 16 1 9 15
M  V30 END BOND
M  V30 END CTAB
M  END
>  <ID>
272
$$$$
Structure_273
Score 	 6.0, smilesprid 	smiles	 smilestrue 	smiles	 similartanimoto 	0	 similardice 	0

   15   16  0  0  0  0            999 V3000
M  V30 BEGIN CTAB
M  V30 COUNTS 15 16 0 0 0
M  V30 BEGIN ATOM
M  V30 1 C -2.5391 -0.1953 0.0000 0
M  V30 2 C -1.7578 -1.3672 0.0000 0
M  V30 3 C -1.7578 0.9766 0.0000 0
M  V30 4 C -0.3906 -0.7812 0.0000 0
M  V30 5 C -0.3906 0.5859 0.0000 0
M  V30 6 C 0.7812 1.1719 0.0000 0
M  V30 7 C 1.9531 -0.7812 0.0000 0
M  V30 8 N 0.7812 -1.5625 0.0000 0
M  V30 9 N 1.9531 0.3906 0.0000 0
M  V30 10 H -3.5156 -0.1953 0.0000 0
M  V30 11 H -2.1484 2.1484 0.0000 0
M  V30 12 H -1.9531 -2.3438 0.0000 0
M  V30 13 H 0.9766 2.3438 0.0000 0
M  V30 14 H 2.9297 -1.3672 0.0000 0
M  V30 15 H 2.7344 0.9766 0.0000 0
M  V30 END ATOM
M  V30 BEGIN BOND
M  V30 1 3 1 2
M  V30 2 1 1 3
M  V30 3 1 1 10
M  V30 4 2 2 4
M  V30 5 1 2 12
M  V30 6 1 3 5
M  V30 7 1 3 11
M  V30 8 1 4 5
M  V30 9 1 4 8
M  V30 10 2 5 6
M  V30 11 1 6 9
M  V30 12 1 6 13
M  V30 13 1 7 8
M  V30 14 1 7 9
M  V30 15 1 7 14
M  V30 16 1 9 15
M  V30 END BOND
M  V30 END CTAB
M  END
>  <ID>
273
$$$$
Structure_274
Score 	 2.0, smilesprid 	smiles	 smilestrue 	smiles	 similartanimoto 	0	 similardice 	0

   15   16  0  0  0  0            999 V3000
M  V30 BEGIN CTAB
M  V30 COUNTS 15 16 0 0 0
M  V30 BEGIN ATOM
M  V30 1 C -2.5391 -0.1953 0.0000 0
M  V30 2 C -1.7578 -1.3672 0.0000 0
M  V30 3 C -1.7578 0.9766 0.0000 0
M  V30 4 C -0.3906 -0.7812 0.0000 0
M  V30 5 C -0.3906 0.5859 0.0000 0
M  V30 6 C 0.7812 1.1719 0.0000 0
M  V30 7 C 1.9531 -0.7812 0.0000 0
M  V30 8 N 0.7812 -1.5625 0.0000 0
M  V30 9 N 1.9531 0.3906 0.0000 0
M  V30 10 H -3.5156 -0.1953 0.0000 0
M  V30 11 H -2.1484 2.1484 0.0000 0
M  V30 12 H -1.9531 -2.3438 0.0000 0
M  V30 13 H 0.9766 2.3438 0.0000 0
M  V30 14 H 2.9297 -1.3672 0.0000 0
M  V30 15 H 2.7344 0.9766 0.0000 0
M  V30 END ATOM
M  V30 BEGIN BOND
M  V30 1 1 1 2
M  V30 2 2 1 3
M  V30 3 1 1 10
M  V30 4 2 2 4
M  V30 5 1 2 12
M  V30 6 1 3 5
M  V30 7 1 3 11
M  V30 8 1 4 5
M  V30 9 1 4 8
M  V30 10 2 5 6
M  V30 11 1 6 9
M  V30 12 1 6 13
M  V30 13 1 7 8
M  V30 14 1 7 9
M  V30 15 1 7 14
M  V30 16 1 9 15
M  V30 END BOND
M  V30 END CTAB
M  END
>  <ID>
274
$$$$
Structure_275
Score 	 4.0, smilesprid 	smiles	 smilestrue 	smiles	 similartanimoto 	0	 similardice 	0

   15   16  0  0  0  0            999 V3000
M  V30 BEGIN CTAB
M  V30 COUNTS 15 16 0 0 0
M  V30 BEGIN ATOM
M  V30 1 C -2.5391 -0.1953 0.0000 0
M  V30 2 C -1.7578 -1.3672 0.0000 0
M  V30 3 C -1.7578 0.9766 0.0000 0
M  V30 4 C -0.3906 -0.7812 0.0000 0
M  V30 5 C -0.3906 0.5859 0.0000 0
M  V30 6 C 0.7812 1.1719 0.0000 0
M  V30 7 C 1.9531 -0.7812 0.0000 0
M  V30 8 N 0.7812 -1.5625 0.0000 0
M  V30 9 N 1.9531 0.3906 0.0000 0
M  V30 10 H -3.5156 -0.1953 0.0000 0
M  V30 11 H -2.1484 2.1484 0.0000 0
M  V30 12 H -1.9531 -2.3438 0.0000 0
M  V30 13 H 0.9766 2.3438 0.0000 0
M  V30 14 H 2.9297 -1.3672 0.0000 0
M  V30 15 H 2.7344 0.9766 0.0000 0
M  V30 END ATOM
M  V30 BEGIN BOND
M  V30 1 2 1 2
M  V30 2 2 1 3
M  V30 3 1 1 10
M  V30 4 2 2 4
M  V30 5 1 2 12
M  V30 6 1 3 5
M  V30 7 1 3 11
M  V30 8 1 4 5
M  V30 9 1 4 8
M  V30 10 2 5 6
M  V30 11 1 6 9
M  V30 12 1 6 13
M  V30 13 1 7 8
M  V30 14 1 7 9
M  V30 15 1 7 14
M  V30 16 1 9 15
M  V30 END BOND
M  V30 END CTAB
M  END
>  <ID>
275
$$$$
Structure_276
Score 	 6.0, smilesprid 	smiles	 smilestrue 	smiles	 similartanimoto 	0	 similardice 	0

   15   16  0  0  0  0            999 V3000
M  V30 BEGIN CTAB
M  V30 COUNTS 15 16 0 0 0
M  V30 BEGIN ATOM
M  V30 1 C -2.5391 -0.1953 0.0000 0
M  V30 2 C -1.7578 -1.3672 0.0000 0
M  V30 3 C -1.7578 0.9766 0.0000 0
M  V30 4 C -0.3906 -0.7812 0.0000 0
M  V30 5 C -0.3906 0.5859 0.0000 0
M  V30 6 C 0.7812 1.1719 0.0000 0
M  V30 7 C 1.9531 -0.7812 0.0000 0
M  V30 8 N 0.7812 -1.5625 0.0000 0
M  V30 9 N 1.9531 0.3906 0.0000 0
M  V30 10 H -3.5156 -0.1953 0.0000 0
M  V30 11 H -2.1484 2.1484 0.0000 0
M  V30 12 H -1.9531 -2.3438 0.0000 0
M  V30 13 H 0.9766 2.3438 0.0000 0
M  V30 14 H 2.9297 -1.3672 0.0000 0
M  V30 15 H 2.7344 0.9766 0.0000 0
M  V30 END ATOM
M  V30 BEGIN BOND
M  V30 1 3 1 2
M  V30 2 2 1 3
M  V30 3 1 1 10
M  V30 4 2 2 4
M  V30 5 1 2 12
M  V30 6 1 3 5
M  V30 7 1 3 11
M  V30 8 1 4 5
M  V30 9 1 4 8
M  V30 10 2 5 6
M  V30 11 1 6 9
M  V30 12 1 6 13
M  V30 13 1 7 8
M  V30 14 1 7 9
M  V30 15 1 7 14
M  V30 16 1 9 15
M  V30 END BOND
M  V30 END CTAB
M  END
>  <ID>
276
$$$$
Structure_277
Score 	 4.0, smilesprid 	smiles	 smilestrue 	smiles	 similartanimoto 	0	 similardice 	0

   15   16  0  0  0  0            999 V3000
M  V30 BEGIN CTAB
M  V30 COUNTS 15 16 0 0 0
M  V30 BEGIN ATOM
M  V30 1 C -2.5391 -0.1953 0.0000 0
M  V30 2 C -1.7578 -1.3672 0.0000 0
M  V30 3 C -1.7578 0.9766 0.0000 0
M  V30 4 C -0.3906 -0.7812 0.0000 0
M  V30 5 C -0.3906 0.5859 0.0000 0
M  V30 6 C 0.7812 1.1719 0.0000 0
M  V30 7 C 1.9531 -0.7812 0.0000 0
M  V30 8 N 0.7812 -1.5625 0.0000 0
M  V30 9 N 1.9531 0.3906 0.0000 0
M  V30 10 H -3.5156 -0.1953 0.0000 0
M  V30 11 H -2.1484 2.1484 0.0000 0
M  V30 12 H -1.9531 -2.3438 0.0000 0
M  V30 13 H 0.9766 2.3438 0.0000 0
M  V30 14 H 2.9297 -1.3672 0.0000 0
M  V30 15 H 2.7344 0.9766 0.0000 0
M  V30 END ATOM
M  V30 BEGIN BOND
M  V30 1 1 1 2
M  V30 2 3 1 3
M  V30 3 1 1 10
M  V30 4 2 2 4
M  V30 5 1 2 12
M  V30 6 1 3 5
M  V30 7 1 3 11
M  V30 8 1 4 5
M  V30 9 1 4 8
M  V30 10 2 5 6
M  V30 11 1 6 9
M  V30 12 1 6 13
M  V30 13 1 7 8
M  V30 14 1 7 9
M  V30 15 1 7 14
M  V30 16 1 9 15
M  V30 END BOND
M  V30 END CTAB
M  END
>  <ID>
277
$$$$
Structure_278
Score 	 6.0, smilesprid 	smiles	 smilestrue 	smiles	 similartanimoto 	0	 similardice 	0

   15   16  0  0  0  0            999 V3000
M  V30 BEGIN CTAB
M  V30 COUNTS 15 16 0 0 0
M  V30 BEGIN ATOM
M  V30 1 C -2.5391 -0.1953 0.0000 0
M  V30 2 C -1.7578 -1.3672 0.0000 0
M  V30 3 C -1.7578 0.9766 0.0000 0
M  V30 4 C -0.3906 -0.7812 0.0000 0
M  V30 5 C -0.3906 0.5859 0.0000 0
M  V30 6 C 0.7812 1.1719 0.0000 0
M  V30 7 C 1.9531 -0.7812 0.0000 0
M  V30 8 N 0.7812 -1.5625 0.0000 0
M  V30 9 N 1.9531 0.3906 0.0000 0
M  V30 10 H -3.5156 -0.1953 0.0000 0
M  V30 11 H -2.1484 2.1484 0.0000 0
M  V30 12 H -1.9531 -2.3438 0.0000 0
M  V30 13 H 0.9766 2.3438 0.0000 0
M  V30 14 H 2.9297 -1.3672 0.0000 0
M  V30 15 H 2.7344 0.9766 0.0000 0
M  V30 END ATOM
M  V30 BEGIN BOND
M  V30 1 2 1 2
M  V30 2 3 1 3
M  V30 3 1 1 10
M  V30 4 2 2 4
M  V30 5 1 2 12
M  V30 6 1 3 5
M  V30 7 1 3 11
M  V30 8 1 4 5
M  V30 9 1 4 8
M  V30 10 2 5 6
M  V30 11 1 6 9
M  V30 12 1 6 13
M  V30 13 1 7 8
M  V30 14 1 7 9
M  V30 15 1 7 14
M  V30 16 1 9 15
M  V30 END BOND
M  V30 END CTAB
M  END
>  <ID>
278
$$$$
Structure_279
Score 	 8.0, smilesprid 	smiles	 smilestrue 	smiles	 similartanimoto 	0	 similardice 	0

   15   16  0  0  0  0            999 V3000
M  V30 BEGIN CTAB
M  V30 COUNTS 15 16 0 0 0
M  V30 BEGIN ATOM
M  V30 1 C -2.5391 -0.1953 0.0000 0
M  V30 2 C -1.7578 -1.3672 0.0000 0
M  V30 3 C -1.7578 0.9766 0.0000 0
M  V30 4 C -0.3906 -0.7812 0.0000 0
M  V30 5 C -0.3906 0.5859 0.0000 0
M  V30 6 C 0.7812 1.1719 0.0000 0
M  V30 7 C 1.9531 -0.7812 0.0000 0
M  V30 8 N 0.7812 -1.5625 0.0000 0
M  V30 9 N 1.9531 0.3906 0.0000 0
M  V30 10 H -3.5156 -0.1953 0.0000 0
M  V30 11 H -2.1484 2.1484 0.0000 0
M  V30 12 H -1.9531 -2.3438 0.0000 0
M  V30 13 H 0.9766 2.3438 0.0000 0
M  V30 14 H 2.9297 -1.3672 0.0000 0
M  V30 15 H 2.7344 0.9766 0.0000 0
M  V30 END ATOM
M  V30 BEGIN BOND
M  V30 1 3 1 2
M  V30 2 3 1 3
M  V30 3 1 1 10
M  V30 4 2 2 4
M  V30 5 1 2 12
M  V30 6 1 3 5
M  V30 7 1 3 11
M  V30 8 1 4 5
M  V30 9 1 4 8
M  V30 10 2 5 6
M  V30 11 1 6 9
M  V30 12 1 6 13
M  V30 13 1 7 8
M  V30 14 1 7 9
M  V30 15 1 7 14
M  V30 16 1 9 15
M  V30 END BOND
M  V30 END CTAB
M  END
>  <ID>
279
$$$$
Structure_280
Score 	 4.0, smilesprid 	smiles	 smilestrue 	smiles	 similartanimoto 	0	 similardice 	0

   15   16  0  0  0  0            999 V3000
M  V30 BEGIN CTAB
M  V30 COUNTS 15 16 0 0 0
M  V30 BEGIN ATOM
M  V30 1 C -2.5391 -0.1953 0.0000 0
M  V30 2 C -1.7578 -1.3672 0.0000 0
M  V30 3 C -1.7578 0.9766 0.0000 0
M  V30 4 C -0.3906 -0.7812 0.0000 0
M  V30 5 C -0.3906 0.5859 0.0000 0
M  V30 6 C 0.7812 1.1719 0.0000 0
M  V30 7 C 1.9531 -0.7812 0.0000 0
M  V30 8 N 0.7812 -1.5625 0.0000 0
M  V30 9 N 1.9531 0.3906 0.0000 0
M  V30 10 H -3.5156 -0.1953 0.0000 0
M  V30 11 H -2.1484 2.1484 0.0000 0
M  V30 12 H -1.9531 -2.3438 0.0000 0
M  V30 13 H 0.9766 2.3438 0.0000 0
M  V30 14 H 2.9297 -1.3672 0.0000 0
M  V30 15 H 2.7344 0.9766 0.0000 0
M  V30 END ATOM
M  V30 BEGIN BOND
M  V30 1 1 1 2
M  V30 2 1 1 3
M  V30 3 1 1 10
M  V30 4 2 2 4
M  V30 5 1 2 12
M  V30 6 2 3 5
M  V30 7 1 3 11
M  V30 8 1 4 5
M  V30 9 1 4 8
M  V30 10 2 5 6
M  V30 11 1 6 9
M  V30 12 1 6 13
M  V30 13 1 7 8
M  V30 14 1 7 9
M  V30 15 1 7 14
M  V30 16 1 9 15
M  V30 END BOND
M  V30 END CTAB
M  END
>  <ID>
280
$$$$
Structure_281
Score 	 4.0, smilesprid 	smiles	 smilestrue 	smiles	 similartanimoto 	0	 similardice 	0

   15   16  0  0  0  0            999 V3000
M  V30 BEGIN CTAB
M  V30 COUNTS 15 16 0 0 0
M  V30 BEGIN ATOM
M  V30 1 C -2.5391 -0.1953 0.0000 0
M  V30 2 C -1.7578 -1.3672 0.0000 0
M  V30 3 C -1.7578 0.9766 0.0000 0
M  V30 4 C -0.3906 -0.7812 0.0000 0
M  V30 5 C -0.3906 0.5859 0.0000 0
M  V30 6 C 0.7812 1.1719 0.0000 0
M  V30 7 C 1.9531 -0.7812 0.0000 0
M  V30 8 N 0.7812 -1.5625 0.0000 0
M  V30 9 N 1.9531 0.3906 0.0000 0
M  V30 10 H -3.5156 -0.1953 0.0000 0
M  V30 11 H -2.1484 2.1484 0.0000 0
M  V30 12 H -1.9531 -2.3438 0.0000 0
M  V30 13 H 0.9766 2.3438 0.0000 0
M  V30 14 H 2.9297 -1.3672 0.0000 0
M  V30 15 H 2.7344 0.9766 0.0000 0
M  V30 END ATOM
M  V30 BEGIN BOND
M  V30 1 2 1 2
M  V30 2 1 1 3
M  V30 3 1 1 10
M  V30 4 2 2 4
M  V30 5 1 2 12
M  V30 6 2 3 5
M  V30 7 1 3 11
M  V30 8 1 4 5
M  V30 9 1 4 8
M  V30 10 2 5 6
M  V30 11 1 6 9
M  V30 12 1 6 13
M  V30 13 1 7 8
M  V30 14 1 7 9
M  V30 15 1 7 14
M  V30 16 1 9 15
M  V30 END BOND
M  V30 END CTAB
M  END
>  <ID>
281
$$$$
Structure_282
Score 	 6.0, smilesprid 	smiles	 smilestrue 	smiles	 similartanimoto 	0	 similardice 	0

   15   16  0  0  0  0            999 V3000
M  V30 BEGIN CTAB
M  V30 COUNTS 15 16 0 0 0
M  V30 BEGIN ATOM
M  V30 1 C -2.5391 -0.1953 0.0000 0
M  V30 2 C -1.7578 -1.3672 0.0000 0
M  V30 3 C -1.7578 0.9766 0.0000 0
M  V30 4 C -0.3906 -0.7812 0.0000 0
M  V30 5 C -0.3906 0.5859 0.0000 0
M  V30 6 C 0.7812 1.1719 0.0000 0
M  V30 7 C 1.9531 -0.7812 0.0000 0
M  V30 8 N 0.7812 -1.5625 0.0000 0
M  V30 9 N 1.9531 0.3906 0.0000 0
M  V30 10 H -3.5156 -0.1953 0.0000 0
M  V30 11 H -2.1484 2.1484 0.0000 0
M  V30 12 H -1.9531 -2.3438 0.0000 0
M  V30 13 H 0.9766 2.3438 0.0000 0
M  V30 14 H 2.9297 -1.3672 0.0000 0
M  V30 15 H 2.7344 0.9766 0.0000 0
M  V30 END ATOM
M  V30 BEGIN BOND
M  V30 1 3 1 2
M  V30 2 1 1 3
M  V30 3 1 1 10
M  V30 4 2 2 4
M  V30 5 1 2 12
M  V30 6 2 3 5
M  V30 7 1 3 11
M  V30 8 1 4 5
M  V30 9 1 4 8
M  V30 10 2 5 6
M  V30 11 1 6 9
M  V30 12 1 6 13
M  V30 13 1 7 8
M  V30 14 1 7 9
M  V30 15 1 7 14
M  V30 16 1 9 15
M  V30 END BOND
M  V30 END CTAB
M  END
>  <ID>
282
$$$$
Structure_283
Score 	 4.0, smilesprid 	smiles	 smilestrue 	smiles	 similartanimoto 	0	 similardice 	0

   15   16  0  0  0  0            999 V3000
M  V30 BEGIN CTAB
M  V30 COUNTS 15 16 0 0 0
M  V30 BEGIN ATOM
M  V30 1 C -2.5391 -0.1953 0.0000 0
M  V30 2 C -1.7578 -1.3672 0.0000 0
M  V30 3 C -1.7578 0.9766 0.0000 0
M  V30 4 C -0.3906 -0.7812 0.0000 0
M  V30 5 C -0.3906 0.5859 0.0000 0
M  V30 6 C 0.7812 1.1719 0.0000 0
M  V30 7 C 1.9531 -0.7812 0.0000 0
M  V30 8 N 0.7812 -1.5625 0.0000 0
M  V30 9 N 1.9531 0.3906 0.0000 0
M  V30 10 H -3.5156 -0.1953 0.0000 0
M  V30 11 H -2.1484 2.1484 0.0000 0
M  V30 12 H -1.9531 -2.3438 0.0000 0
M  V30 13 H 0.9766 2.3438 0.0000 0
M  V30 14 H 2.9297 -1.3672 0.0000 0
M  V30 15 H 2.7344 0.9766 0.0000 0
M  V30 END ATOM
M  V30 BEGIN BOND
M  V30 1 1 1 2
M  V30 2 2 1 3
M  V30 3 1 1 10
M  V30 4 2 2 4
M  V30 5 1 2 12
M  V30 6 2 3 5
M  V30 7 1 3 11
M  V30 8 1 4 5
M  V30 9 1 4 8
M  V30 10 2 5 6
M  V30 11 1 6 9
M  V30 12 1 6 13
M  V30 13 1 7 8
M  V30 14 1 7 9
M  V30 15 1 7 14
M  V30 16 1 9 15
M  V30 END BOND
M  V30 END CTAB
M  END
>  <ID>
283
$$$$
Structure_284
Score 	 6.0, smilesprid 	smiles	 smilestrue 	smiles	 similartanimoto 	0	 similardice 	0

   15   16  0  0  0  0            999 V3000
M  V30 BEGIN CTAB
M  V30 COUNTS 15 16 0 0 0
M  V30 BEGIN ATOM
M  V30 1 C -2.5391 -0.1953 0.0000 0
M  V30 2 C -1.7578 -1.3672 0.0000 0
M  V30 3 C -1.7578 0.9766 0.0000 0
M  V30 4 C -0.3906 -0.7812 0.0000 0
M  V30 5 C -0.3906 0.5859 0.0000 0
M  V30 6 C 0.7812 1.1719 0.0000 0
M  V30 7 C 1.9531 -0.7812 0.0000 0
M  V30 8 N 0.7812 -1.5625 0.0000 0
M  V30 9 N 1.9531 0.3906 0.0000 0
M  V30 10 H -3.5156 -0.1953 0.0000 0
M  V30 11 H -2.1484 2.1484 0.0000 0
M  V30 12 H -1.9531 -2.3438 0.0000 0
M  V30 13 H 0.9766 2.3438 0.0000 0
M  V30 14 H 2.9297 -1.3672 0.0000 0
M  V30 15 H 2.7344 0.9766 0.0000 0
M  V30 END ATOM
M  V30 BEGIN BOND
M  V30 1 2 1 2
M  V30 2 2 1 3
M  V30 3 1 1 10
M  V30 4 2 2 4
M  V30 5 1 2 12
M  V30 6 2 3 5
M  V30 7 1 3 11
M  V30 8 1 4 5
M  V30 9 1 4 8
M  V30 10 2 5 6
M  V30 11 1 6 9
M  V30 12 1 6 13
M  V30 13 1 7 8
M  V30 14 1 7 9
M  V30 15 1 7 14
M  V30 16 1 9 15
M  V30 END BOND
M  V30 END CTAB
M  END
>  <ID>
284
$$$$
Structure_285
Score 	 8.0, smilesprid 	smiles	 smilestrue 	smiles	 similartanimoto 	0	 similardice 	0

   15   16  0  0  0  0            999 V3000
M  V30 BEGIN CTAB
M  V30 COUNTS 15 16 0 0 0
M  V30 BEGIN ATOM
M  V30 1 C -2.5391 -0.1953 0.0000 0
M  V30 2 C -1.7578 -1.3672 0.0000 0
M  V30 3 C -1.7578 0.9766 0.0000 0
M  V30 4 C -0.3906 -0.7812 0.0000 0
M  V30 5 C -0.3906 0.5859 0.0000 0
M  V30 6 C 0.7812 1.1719 0.0000 0
M  V30 7 C 1.9531 -0.7812 0.0000 0
M  V30 8 N 0.7812 -1.5625 0.0000 0
M  V30 9 N 1.9531 0.3906 0.0000 0
M  V30 10 H -3.5156 -0.1953 0.0000 0
M  V30 11 H -2.1484 2.1484 0.0000 0
M  V30 12 H -1.9531 -2.3438 0.0000 0
M  V30 13 H 0.9766 2.3438 0.0000 0
M  V30 14 H 2.9297 -1.3672 0.0000 0
M  V30 15 H 2.7344 0.9766 0.0000 0
M  V30 END ATOM
M  V30 BEGIN BOND
M  V30 1 3 1 2
M  V30 2 2 1 3
M  V30 3 1 1 10
M  V30 4 2 2 4
M  V30 5 1 2 12
M  V30 6 2 3 5
M  V30 7 1 3 11
M  V30 8 1 4 5
M  V30 9 1 4 8
M  V30 10 2 5 6
M  V30 11 1 6 9
M  V30 12 1 6 13
M  V30 13 1 7 8
M  V30 14 1 7 9
M  V30 15 1 7 14
M  V30 16 1 9 15
M  V30 END BOND
M  V30 END CTAB
M  END
>  <ID>
285
$$$$
Structure_286
Score 	 6.0, smilesprid 	smiles	 smilestrue 	smiles	 similartanimoto 	0	 similardice 	0

   15   16  0  0  0  0            999 V3000
M  V30 BEGIN CTAB
M  V30 COUNTS 15 16 0 0 0
M  V30 BEGIN ATOM
M  V30 1 C -2.5391 -0.1953 0.0000 0
M  V30 2 C -1.7578 -1.3672 0.0000 0
M  V30 3 C -1.7578 0.9766 0.0000 0
M  V30 4 C -0.3906 -0.7812 0.0000 0
M  V30 5 C -0.3906 0.5859 0.0000 0
M  V30 6 C 0.7812 1.1719 0.0000 0
M  V30 7 C 1.9531 -0.7812 0.0000 0
M  V30 8 N 0.7812 -1.5625 0.0000 0
M  V30 9 N 1.9531 0.3906 0.0000 0
M  V30 10 H -3.5156 -0.1953 0.0000 0
M  V30 11 H -2.1484 2.1484 0.0000 0
M  V30 12 H -1.9531 -2.3438 0.0000 0
M  V30 13 H 0.9766 2.3438 0.0000 0
M  V30 14 H 2.9297 -1.3672 0.0000 0
M  V30 15 H 2.7344 0.9766 0.0000 0
M  V30 END ATOM
M  V30 BEGIN BOND
M  V30 1 1 1 2
M  V30 2 3 1 3
M  V30 3 1 1 10
M  V30 4 2 2 4
M  V30 5 1 2 12
M  V30 6 2 3 5
M  V30 7 1 3 11
M  V30 8 1 4 5
M  V30 9 1 4 8
M  V30 10 2 5 6
M  V30 11 1 6 9
M  V30 12 1 6 13
M  V30 13 1 7 8
M  V30 14 1 7 9
M  V30 15 1 7 14
M  V30 16 1 9 15
M  V30 END BOND
M  V30 END CTAB
M  END
>  <ID>
286
$$$$
Structure_287
Score 	 8.0, smilesprid 	smiles	 smilestrue 	smiles	 similartanimoto 	0	 similardice 	0

   15   16  0  0  0  0            999 V3000
M  V30 BEGIN CTAB
M  V30 COUNTS 15 16 0 0 0
M  V30 BEGIN ATOM
M  V30 1 C -2.5391 -0.1953 0.0000 0
M  V30 2 C -1.7578 -1.3672 0.0000 0
M  V30 3 C -1.7578 0.9766 0.0000 0
M  V30 4 C -0.3906 -0.7812 0.0000 0
M  V30 5 C -0.3906 0.5859 0.0000 0
M  V30 6 C 0.7812 1.1719 0.0000 0
M  V30 7 C 1.9531 -0.7812 0.0000 0
M  V30 8 N 0.7812 -1.5625 0.0000 0
M  V30 9 N 1.9531 0.3906 0.0000 0
M  V30 10 H -3.5156 -0.1953 0.0000 0
M  V30 11 H -2.1484 2.1484 0.0000 0
M  V30 12 H -1.9531 -2.3438 0.0000 0
M  V30 13 H 0.9766 2.3438 0.0000 0
M  V30 14 H 2.9297 -1.3672 0.0000 0
M  V30 15 H 2.7344 0.9766 0.0000 0
M  V30 END ATOM
M  V30 BEGIN BOND
M  V30 1 2 1 2
M  V30 2 3 1 3
M  V30 3 1 1 10
M  V30 4 2 2 4
M  V30 5 1 2 12
M  V30 6 2 3 5
M  V30 7 1 3 11
M  V30 8 1 4 5
M  V30 9 1 4 8
M  V30 10 2 5 6
M  V30 11 1 6 9
M  V30 12 1 6 13
M  V30 13 1 7 8
M  V30 14 1 7 9
M  V30 15 1 7 14
M  V30 16 1 9 15
M  V30 END BOND
M  V30 END CTAB
M  END
>  <ID>
287
$$$$
Structure_288
Score 	 10.0, smilesprid 	smiles	 smilestrue 	smiles	 similartanimoto 	0	 similardice 	0

   15   16  0  0  0  0            999 V3000
M  V30 BEGIN CTAB
M  V30 COUNTS 15 16 0 0 0
M  V30 BEGIN ATOM
M  V30 1 C -2.5391 -0.1953 0.0000 0
M  V30 2 C -1.7578 -1.3672 0.0000 0
M  V30 3 C -1.7578 0.9766 0.0000 0
M  V30 4 C -0.3906 -0.7812 0.0000 0
M  V30 5 C -0.3906 0.5859 0.0000 0
M  V30 6 C 0.7812 1.1719 0.0000 0
M  V30 7 C 1.9531 -0.7812 0.0000 0
M  V30 8 N 0.7812 -1.5625 0.0000 0
M  V30 9 N 1.9531 0.3906 0.0000 0
M  V30 10 H -3.5156 -0.1953 0.0000 0
M  V30 11 H -2.1484 2.1484 0.0000 0
M  V30 12 H -1.9531 -2.3438 0.0000 0
M  V30 13 H 0.9766 2.3438 0.0000 0
M  V30 14 H 2.9297 -1.3672 0.0000 0
M  V30 15 H 2.7344 0.9766 0.0000 0
M  V30 END ATOM
M  V30 BEGIN BOND
M  V30 1 3 1 2
M  V30 2 3 1 3
M  V30 3 1 1 10
M  V30 4 2 2 4
M  V30 5 1 2 12
M  V30 6 2 3 5
M  V30 7 1 3 11
M  V30 8 1 4 5
M  V30 9 1 4 8
M  V30 10 2 5 6
M  V30 11 1 6 9
M  V30 12 1 6 13
M  V30 13 1 7 8
M  V30 14 1 7 9
M  V30 15 1 7 14
M  V30 16 1 9 15
M  V30 END BOND
M  V30 END CTAB
M  END
>  <ID>
288
$$$$
Structure_289
Score 	 6.0, smilesprid 	smiles	 smilestrue 	smiles	 similartanimoto 	0	 similardice 	0

   15   16  0  0  0  0            999 V3000
M  V30 BEGIN CTAB
M  V30 COUNTS 15 16 0 0 0
M  V30 BEGIN ATOM
M  V30 1 C -2.5391 -0.1953 0.0000 0
M  V30 2 C -1.7578 -1.3672 0.0000 0
M  V30 3 C -1.7578 0.9766 0.0000 0
M  V30 4 C -0.3906 -0.7812 0.0000 0
M  V30 5 C -0.3906 0.5859 0.0000 0
M  V30 6 C 0.7812 1.1719 0.0000 0
M  V30 7 C 1.9531 -0.7812 0.0000 0
M  V30 8 N 0.7812 -1.5625 0.0000 0
M  V30 9 N 1.9531 0.3906 0.0000 0
M  V30 10 H -3.5156 -0.1953 0.0000 0
M  V30 11 H -2.1484 2.1484 0.0000 0
M  V30 12 H -1.9531 -2.3438 0.0000 0
M  V30 13 H 0.9766 2.3438 0.0000 0
M  V30 14 H 2.9297 -1.3672 0.0000 0
M  V30 15 H 2.7344 0.9766 0.0000 0
M  V30 END ATOM
M  V30 BEGIN BOND
M  V30 1 1 1 2
M  V30 2 1 1 3
M  V30 3 1 1 10
M  V30 4 2 2 4
M  V30 5 1 2 12
M  V30 6 3 3 5
M  V30 7 1 3 11
M  V30 8 1 4 5
M  V30 9 1 4 8
M  V30 10 2 5 6
M  V30 11 1 6 9
M  V30 12 1 6 13
M  V30 13 1 7 8
M  V30 14 1 7 9
M  V30 15 1 7 14
M  V30 16 1 9 15
M  V30 END BOND
M  V30 END CTAB
M  END
>  <ID>
289
$$$$
Structure_290
Score 	 6.0, smilesprid 	smiles	 smilestrue 	smiles	 similartanimoto 	0	 similardice 	0

   15   16  0  0  0  0            999 V3000
M  V30 BEGIN CTAB
M  V30 COUNTS 15 16 0 0 0
M  V30 BEGIN ATOM
M  V30 1 C -2.5391 -0.1953 0.0000 0
M  V30 2 C -1.7578 -1.3672 0.0000 0
M  V30 3 C -1.7578 0.9766 0.0000 0
M  V30 4 C -0.3906 -0.7812 0.0000 0
M  V30 5 C -0.3906 0.5859 0.0000 0
M  V30 6 C 0.7812 1.1719 0.0000 0
M  V30 7 C 1.9531 -0.7812 0.0000 0
M  V30 8 N 0.7812 -1.5625 0.0000 0
M  V30 9 N 1.9531 0.3906 0.0000 0
M  V30 10 H -3.5156 -0.1953 0.0000 0
M  V30 11 H -2.1484 2.1484 0.0000 0
M  V30 12 H -1.9531 -2.3438 0.0000 0
M  V30 13 H 0.9766 2.3438 0.0000 0
M  V30 14 H 2.9297 -1.3672 0.0000 0
M  V30 15 H 2.7344 0.9766 0.0000 0
M  V30 END ATOM
M  V30 BEGIN BOND
M  V30 1 2 1 2
M  V30 2 1 1 3
M  V30 3 1 1 10
M  V30 4 2 2 4
M  V30 5 1 2 12
M  V30 6 3 3 5
M  V30 7 1 3 11
M  V30 8 1 4 5
M  V30 9 1 4 8
M  V30 10 2 5 6
M  V30 11 1 6 9
M  V30 12 1 6 13
M  V30 13 1 7 8
M  V30 14 1 7 9
M  V30 15 1 7 14
M  V30 16 1 9 15
M  V30 END BOND
M  V30 END CTAB
M  END
>  <ID>
290
$$$$
Structure_291
Score 	 8.0, smilesprid 	smiles	 smilestrue 	smiles	 similartanimoto 	0	 similardice 	0

   15   16  0  0  0  0            999 V3000
M  V30 BEGIN CTAB
M  V30 COUNTS 15 16 0 0 0
M  V30 BEGIN ATOM
M  V30 1 C -2.5391 -0.1953 0.0000 0
M  V30 2 C -1.7578 -1.3672 0.0000 0
M  V30 3 C -1.7578 0.9766 0.0000 0
M  V30 4 C -0.3906 -0.7812 0.0000 0
M  V30 5 C -0.3906 0.5859 0.0000 0
M  V30 6 C 0.7812 1.1719 0.0000 0
M  V30 7 C 1.9531 -0.7812 0.0000 0
M  V30 8 N 0.7812 -1.5625 0.0000 0
M  V30 9 N 1.9531 0.3906 0.0000 0
M  V30 10 H -3.5156 -0.1953 0.0000 0
M  V30 11 H -2.1484 2.1484 0.0000 0
M  V30 12 H -1.9531 -2.3438 0.0000 0
M  V30 13 H 0.9766 2.3438 0.0000 0
M  V30 14 H 2.9297 -1.3672 0.0000 0
M  V30 15 H 2.7344 0.9766 0.0000 0
M  V30 END ATOM
M  V30 BEGIN BOND
M  V30 1 3 1 2
M  V30 2 1 1 3
M  V30 3 1 1 10
M  V30 4 2 2 4
M  V30 5 1 2 12
M  V30 6 3 3 5
M  V30 7 1 3 11
M  V30 8 1 4 5
M  V30 9 1 4 8
M  V30 10 2 5 6
M  V30 11 1 6 9
M  V30 12 1 6 13
M  V30 13 1 7 8
M  V30 14 1 7 9
M  V30 15 1 7 14
M  V30 16 1 9 15
M  V30 END BOND
M  V30 END CTAB
M  END
>  <ID>
291
$$$$
Structure_292
Score 	 6.0, smilesprid 	smiles	 smilestrue 	smiles	 similartanimoto 	0	 similardice 	0

   15   16  0  0  0  0            999 V3000
M  V30 BEGIN CTAB
M  V30 COUNTS 15 16 0 0 0
M  V30 BEGIN ATOM
M  V30 1 C -2.5391 -0.1953 0.0000 0
M  V30 2 C -1.7578 -1.3672 0.0000 0
M  V30 3 C -1.7578 0.9766 0.0000 0
M  V30 4 C -0.3906 -0.7812 0.0000 0
M  V30 5 C -0.3906 0.5859 0.0000 0
M  V30 6 C 0.7812 1.1719 0.0000 0
M  V30 7 C 1.9531 -0.7812 0.0000 0
M  V30 8 N 0.7812 -1.5625 0.0000 0
M  V30 9 N 1.9531 0.3906 0.0000 0
M  V30 10 H -3.5156 -0.1953 0.0000 0
M  V30 11 H -2.1484 2.1484 0.0000 0
M  V30 12 H -1.9531 -2.3438 0.0000 0
M  V30 13 H 0.9766 2.3438 0.0000 0
M  V30 14 H 2.9297 -1.3672 0.0000 0
M  V30 15 H 2.7344 0.9766 0.0000 0
M  V30 END ATOM
M  V30 BEGIN BOND
M  V30 1 1 1 2
M  V30 2 2 1 3
M  V30 3 1 1 10
M  V30 4 2 2 4
M  V30 5 1 2 12
M  V30 6 3 3 5
M  V30 7 1 3 11
M  V30 8 1 4 5
M  V30 9 1 4 8
M  V30 10 2 5 6
M  V30 11 1 6 9
M  V30 12 1 6 13
M  V30 13 1 7 8
M  V30 14 1 7 9
M  V30 15 1 7 14
M  V30 16 1 9 15
M  V30 END BOND
M  V30 END CTAB
M  END
>  <ID>
292
$$$$
Structure_293
Score 	 8.0, smilesprid 	smiles	 smilestrue 	smiles	 similartanimoto 	0	 similardice 	0

   15   16  0  0  0  0            999 V3000
M  V30 BEGIN CTAB
M  V30 COUNTS 15 16 0 0 0
M  V30 BEGIN ATOM
M  V30 1 C -2.5391 -0.1953 0.0000 0
M  V30 2 C -1.7578 -1.3672 0.0000 0
M  V30 3 C -1.7578 0.9766 0.0000 0
M  V30 4 C -0.3906 -0.7812 0.0000 0
M  V30 5 C -0.3906 0.5859 0.0000 0
M  V30 6 C 0.7812 1.1719 0.0000 0
M  V30 7 C 1.9531 -0.7812 0.0000 0
M  V30 8 N 0.7812 -1.5625 0.0000 0
M  V30 9 N 1.9531 0.3906 0.0000 0
M  V30 10 H -3.5156 -0.1953 0.0000 0
M  V30 11 H -2.1484 2.1484 0.0000 0
M  V30 12 H -1.9531 -2.3438 0.0000 0
M  V30 13 H 0.9766 2.3438 0.0000 0
M  V30 14 H 2.9297 -1.3672 0.0000 0
M  V30 15 H 2.7344 0.9766 0.0000 0
M  V30 END ATOM
M  V30 BEGIN BOND
M  V30 1 2 1 2
M  V30 2 2 1 3
M  V30 3 1 1 10
M  V30 4 2 2 4
M  V30 5 1 2 12
M  V30 6 3 3 5
M  V30 7 1 3 11
M  V30 8 1 4 5
M  V30 9 1 4 8
M  V30 10 2 5 6
M  V30 11 1 6 9
M  V30 12 1 6 13
M  V30 13 1 7 8
M  V30 14 1 7 9
M  V30 15 1 7 14
M  V30 16 1 9 15
M  V30 END BOND
M  V30 END CTAB
M  END
>  <ID>
293
$$$$
Structure_294
Score 	 10.0, smilesprid 	smiles	 smilestrue 	smiles	 similartanimoto 	0	 similardice 	0

   15   16  0  0  0  0            999 V3000
M  V30 BEGIN CTAB
M  V30 COUNTS 15 16 0 0 0
M  V30 BEGIN ATOM
M  V30 1 C -2.5391 -0.1953 0.0000 0
M  V30 2 C -1.7578 -1.3672 0.0000 0
M  V30 3 C -1.7578 0.9766 0.0000 0
M  V30 4 C -0.3906 -0.7812 0.0000 0
M  V30 5 C -0.3906 0.5859 0.0000 0
M  V30 6 C 0.7812 1.1719 0.0000 0
M  V30 7 C 1.9531 -0.7812 0.0000 0
M  V30 8 N 0.7812 -1.5625 0.0000 0
M  V30 9 N 1.9531 0.3906 0.0000 0
M  V30 10 H -3.5156 -0.1953 0.0000 0
M  V30 11 H -2.1484 2.1484 0.0000 0
M  V30 12 H -1.9531 -2.3438 0.0000 0
M  V30 13 H 0.9766 2.3438 0.0000 0
M  V30 14 H 2.9297 -1.3672 0.0000 0
M  V30 15 H 2.7344 0.9766 0.0000 0
M  V30 END ATOM
M  V30 BEGIN BOND
M  V30 1 3 1 2
M  V30 2 2 1 3
M  V30 3 1 1 10
M  V30 4 2 2 4
M  V30 5 1 2 12
M  V30 6 3 3 5
M  V30 7 1 3 11
M  V30 8 1 4 5
M  V30 9 1 4 8
M  V30 10 2 5 6
M  V30 11 1 6 9
M  V30 12 1 6 13
M  V30 13 1 7 8
M  V30 14 1 7 9
M  V30 15 1 7 14
M  V30 16 1 9 15
M  V30 END BOND
M  V30 END CTAB
M  END
>  <ID>
294
$$$$
Structure_295
Score 	 8.0, smilesprid 	smiles	 smilestrue 	smiles	 similartanimoto 	0	 similardice 	0

   15   16  0  0  0  0            999 V3000
M  V30 BEGIN CTAB
M  V30 COUNTS 15 16 0 0 0
M  V30 BEGIN ATOM
M  V30 1 C -2.5391 -0.1953 0.0000 0
M  V30 2 C -1.7578 -1.3672 0.0000 0
M  V30 3 C -1.7578 0.9766 0.0000 0
M  V30 4 C -0.3906 -0.7812 0.0000 0
M  V30 5 C -0.3906 0.5859 0.0000 0
M  V30 6 C 0.7812 1.1719 0.0000 0
M  V30 7 C 1.9531 -0.7812 0.0000 0
M  V30 8 N 0.7812 -1.5625 0.0000 0
M  V30 9 N 1.9531 0.3906 0.0000 0
M  V30 10 H -3.5156 -0.1953 0.0000 0
M  V30 11 H -2.1484 2.1484 0.0000 0
M  V30 12 H -1.9531 -2.3438 0.0000 0
M  V30 13 H 0.9766 2.3438 0.0000 0
M  V30 14 H 2.9297 -1.3672 0.0000 0
M  V30 15 H 2.7344 0.9766 0.0000 0
M  V30 END ATOM
M  V30 BEGIN BOND
M  V30 1 1 1 2
M  V30 2 3 1 3
M  V30 3 1 1 10
M  V30 4 2 2 4
M  V30 5 1 2 12
M  V30 6 3 3 5
M  V30 7 1 3 11
M  V30 8 1 4 5
M  V30 9 1 4 8
M  V30 10 2 5 6
M  V30 11 1 6 9
M  V30 12 1 6 13
M  V30 13 1 7 8
M  V30 14 1 7 9
M  V30 15 1 7 14
M  V30 16 1 9 15
M  V30 END BOND
M  V30 END CTAB
M  END
>  <ID>
295
$$$$
Structure_296
Score 	 10.0, smilesprid 	smiles	 smilestrue 	smiles	 similartanimoto 	0	 similardice 	0

   15   16  0  0  0  0            999 V3000
M  V30 BEGIN CTAB
M  V30 COUNTS 15 16 0 0 0
M  V30 BEGIN ATOM
M  V30 1 C -2.5391 -0.1953 0.0000 0
M  V30 2 C -1.7578 -1.3672 0.0000 0
M  V30 3 C -1.7578 0.9766 0.0000 0
M  V30 4 C -0.3906 -0.7812 0.0000 0
M  V30 5 C -0.3906 0.5859 0.0000 0
M  V30 6 C 0.7812 1.1719 0.0000 0
M  V30 7 C 1.9531 -0.7812 0.0000 0
M  V30 8 N 0.7812 -1.5625 0.0000 0
M  V30 9 N 1.9531 0.3906 0.0000 0
M  V30 10 H -3.5156 -0.1953 0.0000 0
M  V30 11 H -2.1484 2.1484 0.0000 0
M  V30 12 H -1.9531 -2.3438 0.0000 0
M  V30 13 H 0.9766 2.3438 0.0000 0
M  V30 14 H 2.9297 -1.3672 0.0000 0
M  V30 15 H 2.7344 0.9766 0.0000 0
M  V30 END ATOM
M  V30 BEGIN BOND
M  V30 1 2 1 2
M  V30 2 3 1 3
M  V30 3 1 1 10
M  V30 4 2 2 4
M  V30 5 1 2 12
M  V30 6 3 3 5
M  V30 7 1 3 11
M  V30 8 1 4 5
M  V30 9 1 4 8
M  V30 10 2 5 6
M  V30 11 1 6 9
M  V30 12 1 6 13
M  V30 13 1 7 8
M  V30 14 1 7 9
M  V30 15 1 7 14
M  V30 16 1 9 15
M  V30 END BOND
M  V30 END CTAB
M  END
>  <ID>
296
$$$$
Structure_297
Score 	 12.0, smilesprid 	smiles	 smilestrue 	smiles	 similartanimoto 	0	 similardice 	0

   15   16  0  0  0  0            999 V3000
M  V30 BEGIN CTAB
M  V30 COUNTS 15 16 0 0 0
M  V30 BEGIN ATOM
M  V30 1 C -2.5391 -0.1953 0.0000 0
M  V30 2 C -1.7578 -1.3672 0.0000 0
M  V30 3 C -1.7578 0.9766 0.0000 0
M  V30 4 C -0.3906 -0.7812 0.0000 0
M  V30 5 C -0.3906 0.5859 0.0000 0
M  V30 6 C 0.7812 1.1719 0.0000 0
M  V30 7 C 1.9531 -0.7812 0.0000 0
M  V30 8 N 0.7812 -1.5625 0.0000 0
M  V30 9 N 1.9531 0.3906 0.0000 0
M  V30 10 H -3.5156 -0.1953 0.0000 0
M  V30 11 H -2.1484 2.1484 0.0000 0
M  V30 12 H -1.9531 -2.3438 0.0000 0
M  V30 13 H 0.9766 2.3438 0.0000 0
M  V30 14 H 2.9297 -1.3672 0.0000 0
M  V30 15 H 2.7344 0.9766 0.0000 0
M  V30 END ATOM
M  V30 BEGIN BOND
M  V30 1 3 1 2
M  V30 2 3 1 3
M  V30 3 1 1 10
M  V30 4 2 2 4
M  V30 5 1 2 12
M  V30 6 3 3 5
M  V30 7 1 3 11
M  V30 8 1 4 5
M  V30 9 1 4 8
M  V30 10 2 5 6
M  V30 11 1 6 9
M  V30 12 1 6 13
M  V30 13 1 7 8
M  V30 14 1 7 9
M  V30 15 1 7 14
M  V30 16 1 9 15
M  V30 END BOND
M  V30 END CTAB
M  END
>  <ID>
297
$$$$
Structure_298
Score 	 6.0, smilesprid 	smiles	 smilestrue 	smiles	 similartanimoto 	0	 similardice 	0

   15   16  0  0  0  0            999 V3000
M  V30 BEGIN CTAB
M  V30 COUNTS 15 16 0 0 0
M  V30 BEGIN ATOM
M  V30 1 C -2.5391 -0.1953 0.0000 0
M  V30 2 C -1.7578 -1.3672 0.0000 0
M  V30 3 C -1.7578 0.9766 0.0000 0
M  V30 4 C -0.3906 -0.7812 0.0000 0
M  V30 5 C -0.3906 0.5859 0.0000 0
M  V30 6 C 0.7812 1.1719 0.0000 0
M  V30 7 C 1.9531 -0.7812 0.0000 0
M  V30 8 N 0.7812 -1.5625 0.0000 0
M  V30 9 N 1.9531 0.3906 0.0000 0
M  V30 10 H -3.5156 -0.1953 0.0000 0
M  V30 11 H -2.1484 2.1484 0.0000 0
M  V30 12 H -1.9531 -2.3438 0.0000 0
M  V30 13 H 0.9766 2.3438 0.0000 0
M  V30 14 H 2.9297 -1.3672 0.0000 0
M  V30 15 H 2.7344 0.9766 0.0000 0
M  V30 END ATOM
M  V30 BEGIN BOND
M  V30 1 1 1 2
M  V30 2 1 1 3
M  V30 3 1 1 10
M  V30 4 3 2 4
M  V30 5 1 2 12
M  V30 6 1 3 5
M  V30 7 1 3 11
M  V30 8 1 4 5
M  V30 9 1 4 8
M  V30 10 2 5 6
M  V30 11 1 6 9
M  V30 12 1 6 13
M  V30 13 1 7 8
M  V30 14 1 7 9
M  V30 15 1 7 14
M  V30 16 1 9 15
M  V30 END BOND
M  V30 END CTAB
M  END
>  <ID>
298
$$$$
Structure_299
Score 	 6.0, smilesprid 	smiles	 smilestrue 	smiles	 similartanimoto 	0	 similardice 	0

   15   16  0  0  0  0            999 V3000
M  V30 BEGIN CTAB
M  V30 COUNTS 15 16 0 0 0
M  V30 BEGIN ATOM
M  V30 1 C -2.5391 -0.1953 0.0000 0
M  V30 2 C -1.7578 -1.3672 0.0000 0
M  V30 3 C -1.7578 0.9766 0.0000 0
M  V30 4 C -0.3906 -0.7812 0.0000 0
M  V30 5 C -0.3906 0.5859 0.0000 0
M  V30 6 C 0.7812 1.1719 0.0000 0
M  V30 7 C 1.9531 -0.7812 0.0000 0
M  V30 8 N 0.7812 -1.5625 0.0000 0
M  V30 9 N 1.9531 0.3906 0.0000 0
M  V30 10 H -3.5156 -0.1953 0.0000 0
M  V30 11 H -2.1484 2.1484 0.0000 0
M  V30 12 H -1.9531 -2.3438 0.0000 0
M  V30 13 H 0.9766 2.3438 0.0000 0
M  V30 14 H 2.9297 -1.3672 0.0000 0
M  V30 15 H 2.7344 0.9766 0.0000 0
M  V30 END ATOM
M  V30 BEGIN BOND
M  V30 1 2 1 2
M  V30 2 1 1 3
M  V30 3 1 1 10
M  V30 4 3 2 4
M  V30 5 1 2 12
M  V30 6 1 3 5
M  V30 7 1 3 11
M  V30 8 1 4 5
M  V30 9 1 4 8
M  V30 10 2 5 6
M  V30 11 1 6 9
M  V30 12 1 6 13
M  V30 13 1 7 8
M  V30 14 1 7 9
M  V30 15 1 7 14
M  V30 16 1 9 15
M  V30 END BOND
M  V30 END CTAB
M  END
>  <ID>
299
$$$$
Structure_300
Score 	 8.0, smilesprid 	smiles	 smilestrue 	smiles	 similartanimoto 	0	 similardice 	0

   15   16  0  0  0  0            999 V3000
M  V30 BEGIN CTAB
M  V30 COUNTS 15 16 0 0 0
M  V30 BEGIN ATOM
M  V30 1 C -2.5391 -0.1953 0.0000 0
M  V30 2 C -1.7578 -1.3672 0.0000 0
M  V30 3 C -1.7578 0.9766 0.0000 0
M  V30 4 C -0.3906 -0.7812 0.0000 0
M  V30 5 C -0.3906 0.5859 0.0000 0
M  V30 6 C 0.7812 1.1719 0.0000 0
M  V30 7 C 1.9531 -0.7812 0.0000 0
M  V30 8 N 0.7812 -1.5625 0.0000 0
M  V30 9 N 1.9531 0.3906 0.0000 0
M  V30 10 H -3.5156 -0.1953 0.0000 0
M  V30 11 H -2.1484 2.1484 0.0000 0
M  V30 12 H -1.9531 -2.3438 0.0000 0
M  V30 13 H 0.9766 2.3438 0.0000 0
M  V30 14 H 2.9297 -1.3672 0.0000 0
M  V30 15 H 2.7344 0.9766 0.0000 0
M  V30 END ATOM
M  V30 BEGIN BOND
M  V30 1 3 1 2
M  V30 2 1 1 3
M  V30 3 1 1 10
M  V30 4 3 2 4
M  V30 5 1 2 12
M  V30 6 1 3 5
M  V30 7 1 3 11
M  V30 8 1 4 5
M  V30 9 1 4 8
M  V30 10 2 5 6
M  V30 11 1 6 9
M  V30 12 1 6 13
M  V30 13 1 7 8
M  V30 14 1 7 9
M  V30 15 1 7 14
M  V30 16 1 9 15
M  V30 END BOND
M  V30 END CTAB
M  END
>  <ID>
300
$$$$
Structure_301
Score 	 4.0, smilesprid 	smiles	 smilestrue 	smiles	 similartanimoto 	0	 similardice 	0

   15   16  0  0  0  0            999 V3000
M  V30 BEGIN CTAB
M  V30 COUNTS 15 16 0 0 0
M  V30 BEGIN ATOM
M  V30 1 C -2.5391 -0.1953 0.0000 0
M  V30 2 C -1.7578 -1.3672 0.0000 0
M  V30 3 C -1.7578 0.9766 0.0000 0
M  V30 4 C -0.3906 -0.7812 0.0000 0
M  V30 5 C -0.3906 0.5859 0.0000 0
M  V30 6 C 0.7812 1.1719 0.0000 0
M  V30 7 C 1.9531 -0.7812 0.0000 0
M  V30 8 N 0.7812 -1.5625 0.0000 0
M  V30 9 N 1.9531 0.3906 0.0000 0
M  V30 10 H -3.5156 -0.1953 0.0000 0
M  V30 11 H -2.1484 2.1484 0.0000 0
M  V30 12 H -1.9531 -2.3438 0.0000 0
M  V30 13 H 0.9766 2.3438 0.0000 0
M  V30 14 H 2.9297 -1.3672 0.0000 0
M  V30 15 H 2.7344 0.9766 0.0000 0
M  V30 END ATOM
M  V30 BEGIN BOND
M  V30 1 1 1 2
M  V30 2 2 1 3
M  V30 3 1 1 10
M  V30 4 3 2 4
M  V30 5 1 2 12
M  V30 6 1 3 5
M  V30 7 1 3 11
M  V30 8 1 4 5
M  V30 9 1 4 8
M  V30 10 2 5 6
M  V30 11 1 6 9
M  V30 12 1 6 13
M  V30 13 1 7 8
M  V30 14 1 7 9
M  V30 15 1 7 14
M  V30 16 1 9 15
M  V30 END BOND
M  V30 END CTAB
M  END
>  <ID>
301
$$$$
Structure_302
Score 	 6.0, smilesprid 	smiles	 smilestrue 	smiles	 similartanimoto 	0	 similardice 	0

   15   16  0  0  0  0            999 V3000
M  V30 BEGIN CTAB
M  V30 COUNTS 15 16 0 0 0
M  V30 BEGIN ATOM
M  V30 1 C -2.5391 -0.1953 0.0000 0
M  V30 2 C -1.7578 -1.3672 0.0000 0
M  V30 3 C -1.7578 0.9766 0.0000 0
M  V30 4 C -0.3906 -0.7812 0.0000 0
M  V30 5 C -0.3906 0.5859 0.0000 0
M  V30 6 C 0.7812 1.1719 0.0000 0
M  V30 7 C 1.9531 -0.7812 0.0000 0
M  V30 8 N 0.7812 -1.5625 0.0000 0
M  V30 9 N 1.9531 0.3906 0.0000 0
M  V30 10 H -3.5156 -0.1953 0.0000 0
M  V30 11 H -2.1484 2.1484 0.0000 0
M  V30 12 H -1.9531 -2.3438 0.0000 0
M  V30 13 H 0.9766 2.3438 0.0000 0
M  V30 14 H 2.9297 -1.3672 0.0000 0
M  V30 15 H 2.7344 0.9766 0.0000 0
M  V30 END ATOM
M  V30 BEGIN BOND
M  V30 1 2 1 2
M  V30 2 2 1 3
M  V30 3 1 1 10
M  V30 4 3 2 4
M  V30 5 1 2 12
M  V30 6 1 3 5
M  V30 7 1 3 11
M  V30 8 1 4 5
M  V30 9 1 4 8
M  V30 10 2 5 6
M  V30 11 1 6 9
M  V30 12 1 6 13
M  V30 13 1 7 8
M  V30 14 1 7 9
M  V30 15 1 7 14
M  V30 16 1 9 15
M  V30 END BOND
M  V30 END CTAB
M  END
>  <ID>
302
$$$$
Structure_303
Score 	 8.0, smilesprid 	smiles	 smilestrue 	smiles	 similartanimoto 	0	 similardice 	0

   15   16  0  0  0  0            999 V3000
M  V30 BEGIN CTAB
M  V30 COUNTS 15 16 0 0 0
M  V30 BEGIN ATOM
M  V30 1 C -2.5391 -0.1953 0.0000 0
M  V30 2 C -1.7578 -1.3672 0.0000 0
M  V30 3 C -1.7578 0.9766 0.0000 0
M  V30 4 C -0.3906 -0.7812 0.0000 0
M  V30 5 C -0.3906 0.5859 0.0000 0
M  V30 6 C 0.7812 1.1719 0.0000 0
M  V30 7 C 1.9531 -0.7812 0.0000 0
M  V30 8 N 0.7812 -1.5625 0.0000 0
M  V30 9 N 1.9531 0.3906 0.0000 0
M  V30 10 H -3.5156 -0.1953 0.0000 0
M  V30 11 H -2.1484 2.1484 0.0000 0
M  V30 12 H -1.9531 -2.3438 0.0000 0
M  V30 13 H 0.9766 2.3438 0.0000 0
M  V30 14 H 2.9297 -1.3672 0.0000 0
M  V30 15 H 2.7344 0.9766 0.0000 0
M  V30 END ATOM
M  V30 BEGIN BOND
M  V30 1 3 1 2
M  V30 2 2 1 3
M  V30 3 1 1 10
M  V30 4 3 2 4
M  V30 5 1 2 12
M  V30 6 1 3 5
M  V30 7 1 3 11
M  V30 8 1 4 5
M  V30 9 1 4 8
M  V30 10 2 5 6
M  V30 11 1 6 9
M  V30 12 1 6 13
M  V30 13 1 7 8
M  V30 14 1 7 9
M  V30 15 1 7 14
M  V30 16 1 9 15
M  V30 END BOND
M  V30 END CTAB
M  END
>  <ID>
303
$$$$
Structure_304
Score 	 6.0, smilesprid 	smiles	 smilestrue 	smiles	 similartanimoto 	0	 similardice 	0

   15   16  0  0  0  0            999 V3000
M  V30 BEGIN CTAB
M  V30 COUNTS 15 16 0 0 0
M  V30 BEGIN ATOM
M  V30 1 C -2.5391 -0.1953 0.0000 0
M  V30 2 C -1.7578 -1.3672 0.0000 0
M  V30 3 C -1.7578 0.9766 0.0000 0
M  V30 4 C -0.3906 -0.7812 0.0000 0
M  V30 5 C -0.3906 0.5859 0.0000 0
M  V30 6 C 0.7812 1.1719 0.0000 0
M  V30 7 C 1.9531 -0.7812 0.0000 0
M  V30 8 N 0.7812 -1.5625 0.0000 0
M  V30 9 N 1.9531 0.3906 0.0000 0
M  V30 10 H -3.5156 -0.1953 0.0000 0
M  V30 11 H -2.1484 2.1484 0.0000 0
M  V30 12 H -1.9531 -2.3438 0.0000 0
M  V30 13 H 0.9766 2.3438 0.0000 0
M  V30 14 H 2.9297 -1.3672 0.0000 0
M  V30 15 H 2.7344 0.9766 0.0000 0
M  V30 END ATOM
M  V30 BEGIN BOND
M  V30 1 1 1 2
M  V30 2 3 1 3
M  V30 3 1 1 10
M  V30 4 3 2 4
M  V30 5 1 2 12
M  V30 6 1 3 5
M  V30 7 1 3 11
M  V30 8 1 4 5
M  V30 9 1 4 8
M  V30 10 2 5 6
M  V30 11 1 6 9
M  V30 12 1 6 13
M  V30 13 1 7 8
M  V30 14 1 7 9
M  V30 15 1 7 14
M  V30 16 1 9 15
M  V30 END BOND
M  V30 END CTAB
M  END
>  <ID>
304
$$$$
Structure_305
Score 	 8.0, smilesprid 	smiles	 smilestrue 	smiles	 similartanimoto 	0	 similardice 	0

   15   16  0  0  0  0            999 V3000
M  V30 BEGIN CTAB
M  V30 COUNTS 15 16 0 0 0
M  V30 BEGIN ATOM
M  V30 1 C -2.5391 -0.1953 0.0000 0
M  V30 2 C -1.7578 -1.3672 0.0000 0
M  V30 3 C -1.7578 0.9766 0.0000 0
M  V30 4 C -0.3906 -0.7812 0.0000 0
M  V30 5 C -0.3906 0.5859 0.0000 0
M  V30 6 C 0.7812 1.1719 0.0000 0
M  V30 7 C 1.9531 -0.7812 0.0000 0
M  V30 8 N 0.7812 -1.5625 0.0000 0
M  V30 9 N 1.9531 0.3906 0.0000 0
M  V30 10 H -3.5156 -0.1953 0.0000 0
M  V30 11 H -2.1484 2.1484 0.0000 0
M  V30 12 H -1.9531 -2.3438 0.0000 0
M  V30 13 H 0.9766 2.3438 0.0000 0
M  V30 14 H 2.9297 -1.3672 0.0000 0
M  V30 15 H 2.7344 0.9766 0.0000 0
M  V30 END ATOM
M  V30 BEGIN BOND
M  V30 1 2 1 2
M  V30 2 3 1 3
M  V30 3 1 1 10
M  V30 4 3 2 4
M  V30 5 1 2 12
M  V30 6 1 3 5
M  V30 7 1 3 11
M  V30 8 1 4 5
M  V30 9 1 4 8
M  V30 10 2 5 6
M  V30 11 1 6 9
M  V30 12 1 6 13
M  V30 13 1 7 8
M  V30 14 1 7 9
M  V30 15 1 7 14
M  V30 16 1 9 15
M  V30 END BOND
M  V30 END CTAB
M  END
>  <ID>
305
$$$$
Structure_306
Score 	 10.0, smilesprid 	smiles	 smilestrue 	smiles	 similartanimoto 	0	 similardice 	0

   15   16  0  0  0  0            999 V3000
M  V30 BEGIN CTAB
M  V30 COUNTS 15 16 0 0 0
M  V30 BEGIN ATOM
M  V30 1 C -2.5391 -0.1953 0.0000 0
M  V30 2 C -1.7578 -1.3672 0.0000 0
M  V30 3 C -1.7578 0.9766 0.0000 0
M  V30 4 C -0.3906 -0.7812 0.0000 0
M  V30 5 C -0.3906 0.5859 0.0000 0
M  V30 6 C 0.7812 1.1719 0.0000 0
M  V30 7 C 1.9531 -0.7812 0.0000 0
M  V30 8 N 0.7812 -1.5625 0.0000 0
M  V30 9 N 1.9531 0.3906 0.0000 0
M  V30 10 H -3.5156 -0.1953 0.0000 0
M  V30 11 H -2.1484 2.1484 0.0000 0
M  V30 12 H -1.9531 -2.3438 0.0000 0
M  V30 13 H 0.9766 2.3438 0.0000 0
M  V30 14 H 2.9297 -1.3672 0.0000 0
M  V30 15 H 2.7344 0.9766 0.0000 0
M  V30 END ATOM
M  V30 BEGIN BOND
M  V30 1 3 1 2
M  V30 2 3 1 3
M  V30 3 1 1 10
M  V30 4 3 2 4
M  V30 5 1 2 12
M  V30 6 1 3 5
M  V30 7 1 3 11
M  V30 8 1 4 5
M  V30 9 1 4 8
M  V30 10 2 5 6
M  V30 11 1 6 9
M  V30 12 1 6 13
M  V30 13 1 7 8
M  V30 14 1 7 9
M  V30 15 1 7 14
M  V30 16 1 9 15
M  V30 END BOND
M  V30 END CTAB
M  END
>  <ID>
306
$$$$
Structure_307
Score 	 6.0, smilesprid 	smiles	 smilestrue 	smiles	 similartanimoto 	0	 similardice 	0

   15   16  0  0  0  0            999 V3000
M  V30 BEGIN CTAB
M  V30 COUNTS 15 16 0 0 0
M  V30 BEGIN ATOM
M  V30 1 C -2.5391 -0.1953 0.0000 0
M  V30 2 C -1.7578 -1.3672 0.0000 0
M  V30 3 C -1.7578 0.9766 0.0000 0
M  V30 4 C -0.3906 -0.7812 0.0000 0
M  V30 5 C -0.3906 0.5859 0.0000 0
M  V30 6 C 0.7812 1.1719 0.0000 0
M  V30 7 C 1.9531 -0.7812 0.0000 0
M  V30 8 N 0.7812 -1.5625 0.0000 0
M  V30 9 N 1.9531 0.3906 0.0000 0
M  V30 10 H -3.5156 -0.1953 0.0000 0
M  V30 11 H -2.1484 2.1484 0.0000 0
M  V30 12 H -1.9531 -2.3438 0.0000 0
M  V30 13 H 0.9766 2.3438 0.0000 0
M  V30 14 H 2.9297 -1.3672 0.0000 0
M  V30 15 H 2.7344 0.9766 0.0000 0
M  V30 END ATOM
M  V30 BEGIN BOND
M  V30 1 1 1 2
M  V30 2 1 1 3
M  V30 3 1 1 10
M  V30 4 3 2 4
M  V30 5 1 2 12
M  V30 6 2 3 5
M  V30 7 1 3 11
M  V30 8 1 4 5
M  V30 9 1 4 8
M  V30 10 2 5 6
M  V30 11 1 6 9
M  V30 12 1 6 13
M  V30 13 1 7 8
M  V30 14 1 7 9
M  V30 15 1 7 14
M  V30 16 1 9 15
M  V30 END BOND
M  V30 END CTAB
M  END
>  <ID>
307
$$$$
Structure_308
Score 	 6.0, smilesprid 	smiles	 smilestrue 	smiles	 similartanimoto 	0	 similardice 	0

   15   16  0  0  0  0            999 V3000
M  V30 BEGIN CTAB
M  V30 COUNTS 15 16 0 0 0
M  V30 BEGIN ATOM
M  V30 1 C -2.5391 -0.1953 0.0000 0
M  V30 2 C -1.7578 -1.3672 0.0000 0
M  V30 3 C -1.7578 0.9766 0.0000 0
M  V30 4 C -0.3906 -0.7812 0.0000 0
M  V30 5 C -0.3906 0.5859 0.0000 0
M  V30 6 C 0.7812 1.1719 0.0000 0
M  V30 7 C 1.9531 -0.7812 0.0000 0
M  V30 8 N 0.7812 -1.5625 0.0000 0
M  V30 9 N 1.9531 0.3906 0.0000 0
M  V30 10 H -3.5156 -0.1953 0.0000 0
M  V30 11 H -2.1484 2.1484 0.0000 0
M  V30 12 H -1.9531 -2.3438 0.0000 0
M  V30 13 H 0.9766 2.3438 0.0000 0
M  V30 14 H 2.9297 -1.3672 0.0000 0
M  V30 15 H 2.7344 0.9766 0.0000 0
M  V30 END ATOM
M  V30 BEGIN BOND
M  V30 1 2 1 2
M  V30 2 1 1 3
M  V30 3 1 1 10
M  V30 4 3 2 4
M  V30 5 1 2 12
M  V30 6 2 3 5
M  V30 7 1 3 11
M  V30 8 1 4 5
M  V30 9 1 4 8
M  V30 10 2 5 6
M  V30 11 1 6 9
M  V30 12 1 6 13
M  V30 13 1 7 8
M  V30 14 1 7 9
M  V30 15 1 7 14
M  V30 16 1 9 15
M  V30 END BOND
M  V30 END CTAB
M  END
>  <ID>
308
$$$$
Structure_309
Score 	 8.0, smilesprid 	smiles	 smilestrue 	smiles	 similartanimoto 	0	 similardice 	0

   15   16  0  0  0  0            999 V3000
M  V30 BEGIN CTAB
M  V30 COUNTS 15 16 0 0 0
M  V30 BEGIN ATOM
M  V30 1 C -2.5391 -0.1953 0.0000 0
M  V30 2 C -1.7578 -1.3672 0.0000 0
M  V30 3 C -1.7578 0.9766 0.0000 0
M  V30 4 C -0.3906 -0.7812 0.0000 0
M  V30 5 C -0.3906 0.5859 0.0000 0
M  V30 6 C 0.7812 1.1719 0.0000 0
M  V30 7 C 1.9531 -0.7812 0.0000 0
M  V30 8 N 0.7812 -1.5625 0.0000 0
M  V30 9 N 1.9531 0.3906 0.0000 0
M  V30 10 H -3.5156 -0.1953 0.0000 0
M  V30 11 H -2.1484 2.1484 0.0000 0
M  V30 12 H -1.9531 -2.3438 0.0000 0
M  V30 13 H 0.9766 2.3438 0.0000 0
M  V30 14 H 2.9297 -1.3672 0.0000 0
M  V30 15 H 2.7344 0.9766 0.0000 0
M  V30 END ATOM
M  V30 BEGIN BOND
M  V30 1 3 1 2
M  V30 2 1 1 3
M  V30 3 1 1 10
M  V30 4 3 2 4
M  V30 5 1 2 12
M  V30 6 2 3 5
M  V30 7 1 3 11
M  V30 8 1 4 5
M  V30 9 1 4 8
M  V30 10 2 5 6
M  V30 11 1 6 9
M  V30 12 1 6 13
M  V30 13 1 7 8
M  V30 14 1 7 9
M  V30 15 1 7 14
M  V30 16 1 9 15
M  V30 END BOND
M  V30 END CTAB
M  END
>  <ID>
309
$$$$
Structure_310
Score 	 6.0, smilesprid 	smiles	 smilestrue 	smiles	 similartanimoto 	0	 similardice 	0

   15   16  0  0  0  0            999 V3000
M  V30 BEGIN CTAB
M  V30 COUNTS 15 16 0 0 0
M  V30 BEGIN ATOM
M  V30 1 C -2.5391 -0.1953 0.0000 0
M  V30 2 C -1.7578 -1.3672 0.0000 0
M  V30 3 C -1.7578 0.9766 0.0000 0
M  V30 4 C -0.3906 -0.7812 0.0000 0
M  V30 5 C -0.3906 0.5859 0.0000 0
M  V30 6 C 0.7812 1.1719 0.0000 0
M  V30 7 C 1.9531 -0.7812 0.0000 0
M  V30 8 N 0.7812 -1.5625 0.0000 0
M  V30 9 N 1.9531 0.3906 0.0000 0
M  V30 10 H -3.5156 -0.1953 0.0000 0
M  V30 11 H -2.1484 2.1484 0.0000 0
M  V30 12 H -1.9531 -2.3438 0.0000 0
M  V30 13 H 0.9766 2.3438 0.0000 0
M  V30 14 H 2.9297 -1.3672 0.0000 0
M  V30 15 H 2.7344 0.9766 0.0000 0
M  V30 END ATOM
M  V30 BEGIN BOND
M  V30 1 1 1 2
M  V30 2 2 1 3
M  V30 3 1 1 10
M  V30 4 3 2 4
M  V30 5 1 2 12
M  V30 6 2 3 5
M  V30 7 1 3 11
M  V30 8 1 4 5
M  V30 9 1 4 8
M  V30 10 2 5 6
M  V30 11 1 6 9
M  V30 12 1 6 13
M  V30 13 1 7 8
M  V30 14 1 7 9
M  V30 15 1 7 14
M  V30 16 1 9 15
M  V30 END BOND
M  V30 END CTAB
M  END
>  <ID>
310
$$$$
Structure_311
Score 	 8.0, smilesprid 	smiles	 smilestrue 	smiles	 similartanimoto 	0	 similardice 	0

   15   16  0  0  0  0            999 V3000
M  V30 BEGIN CTAB
M  V30 COUNTS 15 16 0 0 0
M  V30 BEGIN ATOM
M  V30 1 C -2.5391 -0.1953 0.0000 0
M  V30 2 C -1.7578 -1.3672 0.0000 0
M  V30 3 C -1.7578 0.9766 0.0000 0
M  V30 4 C -0.3906 -0.7812 0.0000 0
M  V30 5 C -0.3906 0.5859 0.0000 0
M  V30 6 C 0.7812 1.1719 0.0000 0
M  V30 7 C 1.9531 -0.7812 0.0000 0
M  V30 8 N 0.7812 -1.5625 0.0000 0
M  V30 9 N 1.9531 0.3906 0.0000 0
M  V30 10 H -3.5156 -0.1953 0.0000 0
M  V30 11 H -2.1484 2.1484 0.0000 0
M  V30 12 H -1.9531 -2.3438 0.0000 0
M  V30 13 H 0.9766 2.3438 0.0000 0
M  V30 14 H 2.9297 -1.3672 0.0000 0
M  V30 15 H 2.7344 0.9766 0.0000 0
M  V30 END ATOM
M  V30 BEGIN BOND
M  V30 1 2 1 2
M  V30 2 2 1 3
M  V30 3 1 1 10
M  V30 4 3 2 4
M  V30 5 1 2 12
M  V30 6 2 3 5
M  V30 7 1 3 11
M  V30 8 1 4 5
M  V30 9 1 4 8
M  V30 10 2 5 6
M  V30 11 1 6 9
M  V30 12 1 6 13
M  V30 13 1 7 8
M  V30 14 1 7 9
M  V30 15 1 7 14
M  V30 16 1 9 15
M  V30 END BOND
M  V30 END CTAB
M  END
>  <ID>
311
$$$$
Structure_312
Score 	 10.0, smilesprid 	smiles	 smilestrue 	smiles	 similartanimoto 	0	 similardice 	0

   15   16  0  0  0  0            999 V3000
M  V30 BEGIN CTAB
M  V30 COUNTS 15 16 0 0 0
M  V30 BEGIN ATOM
M  V30 1 C -2.5391 -0.1953 0.0000 0
M  V30 2 C -1.7578 -1.3672 0.0000 0
M  V30 3 C -1.7578 0.9766 0.0000 0
M  V30 4 C -0.3906 -0.7812 0.0000 0
M  V30 5 C -0.3906 0.5859 0.0000 0
M  V30 6 C 0.7812 1.1719 0.0000 0
M  V30 7 C 1.9531 -0.7812 0.0000 0
M  V30 8 N 0.7812 -1.5625 0.0000 0
M  V30 9 N 1.9531 0.3906 0.0000 0
M  V30 10 H -3.5156 -0.1953 0.0000 0
M  V30 11 H -2.1484 2.1484 0.0000 0
M  V30 12 H -1.9531 -2.3438 0.0000 0
M  V30 13 H 0.9766 2.3438 0.0000 0
M  V30 14 H 2.9297 -1.3672 0.0000 0
M  V30 15 H 2.7344 0.9766 0.0000 0
M  V30 END ATOM
M  V30 BEGIN BOND
M  V30 1 3 1 2
M  V30 2 2 1 3
M  V30 3 1 1 10
M  V30 4 3 2 4
M  V30 5 1 2 12
M  V30 6 2 3 5
M  V30 7 1 3 11
M  V30 8 1 4 5
M  V30 9 1 4 8
M  V30 10 2 5 6
M  V30 11 1 6 9
M  V30 12 1 6 13
M  V30 13 1 7 8
M  V30 14 1 7 9
M  V30 15 1 7 14
M  V30 16 1 9 15
M  V30 END BOND
M  V30 END CTAB
M  END
>  <ID>
312
$$$$
Structure_313
Score 	 8.0, smilesprid 	smiles	 smilestrue 	smiles	 similartanimoto 	0	 similardice 	0

   15   16  0  0  0  0            999 V3000
M  V30 BEGIN CTAB
M  V30 COUNTS 15 16 0 0 0
M  V30 BEGIN ATOM
M  V30 1 C -2.5391 -0.1953 0.0000 0
M  V30 2 C -1.7578 -1.3672 0.0000 0
M  V30 3 C -1.7578 0.9766 0.0000 0
M  V30 4 C -0.3906 -0.7812 0.0000 0
M  V30 5 C -0.3906 0.5859 0.0000 0
M  V30 6 C 0.7812 1.1719 0.0000 0
M  V30 7 C 1.9531 -0.7812 0.0000 0
M  V30 8 N 0.7812 -1.5625 0.0000 0
M  V30 9 N 1.9531 0.3906 0.0000 0
M  V30 10 H -3.5156 -0.1953 0.0000 0
M  V30 11 H -2.1484 2.1484 0.0000 0
M  V30 12 H -1.9531 -2.3438 0.0000 0
M  V30 13 H 0.9766 2.3438 0.0000 0
M  V30 14 H 2.9297 -1.3672 0.0000 0
M  V30 15 H 2.7344 0.9766 0.0000 0
M  V30 END ATOM
M  V30 BEGIN BOND
M  V30 1 1 1 2
M  V30 2 3 1 3
M  V30 3 1 1 10
M  V30 4 3 2 4
M  V30 5 1 2 12
M  V30 6 2 3 5
M  V30 7 1 3 11
M  V30 8 1 4 5
M  V30 9 1 4 8
M  V30 10 2 5 6
M  V30 11 1 6 9
M  V30 12 1 6 13
M  V30 13 1 7 8
M  V30 14 1 7 9
M  V30 15 1 7 14
M  V30 16 1 9 15
M  V30 END BOND
M  V30 END CTAB
M  END
>  <ID>
313
$$$$
Structure_314
Score 	 10.0, smilesprid 	smiles	 smilestrue 	smiles	 similartanimoto 	0	 similardice 	0

   15   16  0  0  0  0            999 V3000
M  V30 BEGIN CTAB
M  V30 COUNTS 15 16 0 0 0
M  V30 BEGIN ATOM
M  V30 1 C -2.5391 -0.1953 0.0000 0
M  V30 2 C -1.7578 -1.3672 0.0000 0
M  V30 3 C -1.7578 0.9766 0.0000 0
M  V30 4 C -0.3906 -0.7812 0.0000 0
M  V30 5 C -0.3906 0.5859 0.0000 0
M  V30 6 C 0.7812 1.1719 0.0000 0
M  V30 7 C 1.9531 -0.7812 0.0000 0
M  V30 8 N 0.7812 -1.5625 0.0000 0
M  V30 9 N 1.9531 0.3906 0.0000 0
M  V30 10 H -3.5156 -0.1953 0.0000 0
M  V30 11 H -2.1484 2.1484 0.0000 0
M  V30 12 H -1.9531 -2.3438 0.0000 0
M  V30 13 H 0.9766 2.3438 0.0000 0
M  V30 14 H 2.9297 -1.3672 0.0000 0
M  V30 15 H 2.7344 0.9766 0.0000 0
M  V30 END ATOM
M  V30 BEGIN BOND
M  V30 1 2 1 2
M  V30 2 3 1 3
M  V30 3 1 1 10
M  V30 4 3 2 4
M  V30 5 1 2 12
M  V30 6 2 3 5
M  V30 7 1 3 11
M  V30 8 1 4 5
M  V30 9 1 4 8
M  V30 10 2 5 6
M  V30 11 1 6 9
M  V30 12 1 6 13
M  V30 13 1 7 8
M  V30 14 1 7 9
M  V30 15 1 7 14
M  V30 16 1 9 15
M  V30 END BOND
M  V30 END CTAB
M  END
>  <ID>
314
$$$$
Structure_315
Score 	 12.0, smilesprid 	smiles	 smilestrue 	smiles	 similartanimoto 	0	 similardice 	0

   15   16  0  0  0  0            999 V3000
M  V30 BEGIN CTAB
M  V30 COUNTS 15 16 0 0 0
M  V30 BEGIN ATOM
M  V30 1 C -2.5391 -0.1953 0.0000 0
M  V30 2 C -1.7578 -1.3672 0.0000 0
M  V30 3 C -1.7578 0.9766 0.0000 0
M  V30 4 C -0.3906 -0.7812 0.0000 0
M  V30 5 C -0.3906 0.5859 0.0000 0
M  V30 6 C 0.7812 1.1719 0.0000 0
M  V30 7 C 1.9531 -0.7812 0.0000 0
M  V30 8 N 0.7812 -1.5625 0.0000 0
M  V30 9 N 1.9531 0.3906 0.0000 0
M  V30 10 H -3.5156 -0.1953 0.0000 0
M  V30 11 H -2.1484 2.1484 0.0000 0
M  V30 12 H -1.9531 -2.3438 0.0000 0
M  V30 13 H 0.9766 2.3438 0.0000 0
M  V30 14 H 2.9297 -1.3672 0.0000 0
M  V30 15 H 2.7344 0.9766 0.0000 0
M  V30 END ATOM
M  V30 BEGIN BOND
M  V30 1 3 1 2
M  V30 2 3 1 3
M  V30 3 1 1 10
M  V30 4 3 2 4
M  V30 5 1 2 12
M  V30 6 2 3 5
M  V30 7 1 3 11
M  V30 8 1 4 5
M  V30 9 1 4 8
M  V30 10 2 5 6
M  V30 11 1 6 9
M  V30 12 1 6 13
M  V30 13 1 7 8
M  V30 14 1 7 9
M  V30 15 1 7 14
M  V30 16 1 9 15
M  V30 END BOND
M  V30 END CTAB
M  END
>  <ID>
315
$$$$
Structure_316
Score 	 8.0, smilesprid 	smiles	 smilestrue 	smiles	 similartanimoto 	0	 similardice 	0

   15   16  0  0  0  0            999 V3000
M  V30 BEGIN CTAB
M  V30 COUNTS 15 16 0 0 0
M  V30 BEGIN ATOM
M  V30 1 C -2.5391 -0.1953 0.0000 0
M  V30 2 C -1.7578 -1.3672 0.0000 0
M  V30 3 C -1.7578 0.9766 0.0000 0
M  V30 4 C -0.3906 -0.7812 0.0000 0
M  V30 5 C -0.3906 0.5859 0.0000 0
M  V30 6 C 0.7812 1.1719 0.0000 0
M  V30 7 C 1.9531 -0.7812 0.0000 0
M  V30 8 N 0.7812 -1.5625 0.0000 0
M  V30 9 N 1.9531 0.3906 0.0000 0
M  V30 10 H -3.5156 -0.1953 0.0000 0
M  V30 11 H -2.1484 2.1484 0.0000 0
M  V30 12 H -1.9531 -2.3438 0.0000 0
M  V30 13 H 0.9766 2.3438 0.0000 0
M  V30 14 H 2.9297 -1.3672 0.0000 0
M  V30 15 H 2.7344 0.9766 0.0000 0
M  V30 END ATOM
M  V30 BEGIN BOND
M  V30 1 1 1 2
M  V30 2 1 1 3
M  V30 3 1 1 10
M  V30 4 3 2 4
M  V30 5 1 2 12
M  V30 6 3 3 5
M  V30 7 1 3 11
M  V30 8 1 4 5
M  V30 9 1 4 8
M  V30 10 2 5 6
M  V30 11 1 6 9
M  V30 12 1 6 13
M  V30 13 1 7 8
M  V30 14 1 7 9
M  V30 15 1 7 14
M  V30 16 1 9 15
M  V30 END BOND
M  V30 END CTAB
M  END
>  <ID>
316
$$$$
Structure_317
Score 	 8.0, smilesprid 	smiles	 smilestrue 	smiles	 similartanimoto 	0	 similardice 	0

   15   16  0  0  0  0            999 V3000
M  V30 BEGIN CTAB
M  V30 COUNTS 15 16 0 0 0
M  V30 BEGIN ATOM
M  V30 1 C -2.5391 -0.1953 0.0000 0
M  V30 2 C -1.7578 -1.3672 0.0000 0
M  V30 3 C -1.7578 0.9766 0.0000 0
M  V30 4 C -0.3906 -0.7812 0.0000 0
M  V30 5 C -0.3906 0.5859 0.0000 0
M  V30 6 C 0.7812 1.1719 0.0000 0
M  V30 7 C 1.9531 -0.7812 0.0000 0
M  V30 8 N 0.7812 -1.5625 0.0000 0
M  V30 9 N 1.9531 0.3906 0.0000 0
M  V30 10 H -3.5156 -0.1953 0.0000 0
M  V30 11 H -2.1484 2.1484 0.0000 0
M  V30 12 H -1.9531 -2.3438 0.0000 0
M  V30 13 H 0.9766 2.3438 0.0000 0
M  V30 14 H 2.9297 -1.3672 0.0000 0
M  V30 15 H 2.7344 0.9766 0.0000 0
M  V30 END ATOM
M  V30 BEGIN BOND
M  V30 1 2 1 2
M  V30 2 1 1 3
M  V30 3 1 1 10
M  V30 4 3 2 4
M  V30 5 1 2 12
M  V30 6 3 3 5
M  V30 7 1 3 11
M  V30 8 1 4 5
M  V30 9 1 4 8
M  V30 10 2 5 6
M  V30 11 1 6 9
M  V30 12 1 6 13
M  V30 13 1 7 8
M  V30 14 1 7 9
M  V30 15 1 7 14
M  V30 16 1 9 15
M  V30 END BOND
M  V30 END CTAB
M  END
>  <ID>
317
$$$$
Structure_318
Score 	 10.0, smilesprid 	smiles	 smilestrue 	smiles	 similartanimoto 	0	 similardice 	0

   15   16  0  0  0  0            999 V3000
M  V30 BEGIN CTAB
M  V30 COUNTS 15 16 0 0 0
M  V30 BEGIN ATOM
M  V30 1 C -2.5391 -0.1953 0.0000 0
M  V30 2 C -1.7578 -1.3672 0.0000 0
M  V30 3 C -1.7578 0.9766 0.0000 0
M  V30 4 C -0.3906 -0.7812 0.0000 0
M  V30 5 C -0.3906 0.5859 0.0000 0
M  V30 6 C 0.7812 1.1719 0.0000 0
M  V30 7 C 1.9531 -0.7812 0.0000 0
M  V30 8 N 0.7812 -1.5625 0.0000 0
M  V30 9 N 1.9531 0.3906 0.0000 0
M  V30 10 H -3.5156 -0.1953 0.0000 0
M  V30 11 H -2.1484 2.1484 0.0000 0
M  V30 12 H -1.9531 -2.3438 0.0000 0
M  V30 13 H 0.9766 2.3438 0.0000 0
M  V30 14 H 2.9297 -1.3672 0.0000 0
M  V30 15 H 2.7344 0.9766 0.0000 0
M  V30 END ATOM
M  V30 BEGIN BOND
M  V30 1 3 1 2
M  V30 2 1 1 3
M  V30 3 1 1 10
M  V30 4 3 2 4
M  V30 5 1 2 12
M  V30 6 3 3 5
M  V30 7 1 3 11
M  V30 8 1 4 5
M  V30 9 1 4 8
M  V30 10 2 5 6
M  V30 11 1 6 9
M  V30 12 1 6 13
M  V30 13 1 7 8
M  V30 14 1 7 9
M  V30 15 1 7 14
M  V30 16 1 9 15
M  V30 END BOND
M  V30 END CTAB
M  END
>  <ID>
318
$$$$
Structure_319
Score 	 8.0, smilesprid 	smiles	 smilestrue 	smiles	 similartanimoto 	0	 similardice 	0

   15   16  0  0  0  0            999 V3000
M  V30 BEGIN CTAB
M  V30 COUNTS 15 16 0 0 0
M  V30 BEGIN ATOM
M  V30 1 C -2.5391 -0.1953 0.0000 0
M  V30 2 C -1.7578 -1.3672 0.0000 0
M  V30 3 C -1.7578 0.9766 0.0000 0
M  V30 4 C -0.3906 -0.7812 0.0000 0
M  V30 5 C -0.3906 0.5859 0.0000 0
M  V30 6 C 0.7812 1.1719 0.0000 0
M  V30 7 C 1.9531 -0.7812 0.0000 0
M  V30 8 N 0.7812 -1.5625 0.0000 0
M  V30 9 N 1.9531 0.3906 0.0000 0
M  V30 10 H -3.5156 -0.1953 0.0000 0
M  V30 11 H -2.1484 2.1484 0.0000 0
M  V30 12 H -1.9531 -2.3438 0.0000 0
M  V30 13 H 0.9766 2.3438 0.0000 0
M  V30 14 H 2.9297 -1.3672 0.0000 0
M  V30 15 H 2.7344 0.9766 0.0000 0
M  V30 END ATOM
M  V30 BEGIN BOND
M  V30 1 1 1 2
M  V30 2 2 1 3
M  V30 3 1 1 10
M  V30 4 3 2 4
M  V30 5 1 2 12
M  V30 6 3 3 5
M  V30 7 1 3 11
M  V30 8 1 4 5
M  V30 9 1 4 8
M  V30 10 2 5 6
M  V30 11 1 6 9
M  V30 12 1 6 13
M  V30 13 1 7 8
M  V30 14 1 7 9
M  V30 15 1 7 14
M  V30 16 1 9 15
M  V30 END BOND
M  V30 END CTAB
M  END
>  <ID>
319
$$$$
Structure_320
Score 	 10.0, smilesprid 	smiles	 smilestrue 	smiles	 similartanimoto 	0	 similardice 	0

   15   16  0  0  0  0            999 V3000
M  V30 BEGIN CTAB
M  V30 COUNTS 15 16 0 0 0
M  V30 BEGIN ATOM
M  V30 1 C -2.5391 -0.1953 0.0000 0
M  V30 2 C -1.7578 -1.3672 0.0000 0
M  V30 3 C -1.7578 0.9766 0.0000 0
M  V30 4 C -0.3906 -0.7812 0.0000 0
M  V30 5 C -0.3906 0.5859 0.0000 0
M  V30 6 C 0.7812 1.1719 0.0000 0
M  V30 7 C 1.9531 -0.7812 0.0000 0
M  V30 8 N 0.7812 -1.5625 0.0000 0
M  V30 9 N 1.9531 0.3906 0.0000 0
M  V30 10 H -3.5156 -0.1953 0.0000 0
M  V30 11 H -2.1484 2.1484 0.0000 0
M  V30 12 H -1.9531 -2.3438 0.0000 0
M  V30 13 H 0.9766 2.3438 0.0000 0
M  V30 14 H 2.9297 -1.3672 0.0000 0
M  V30 15 H 2.7344 0.9766 0.0000 0
M  V30 END ATOM
M  V30 BEGIN BOND
M  V30 1 2 1 2
M  V30 2 2 1 3
M  V30 3 1 1 10
M  V30 4 3 2 4
M  V30 5 1 2 12
M  V30 6 3 3 5
M  V30 7 1 3 11
M  V30 8 1 4 5
M  V30 9 1 4 8
M  V30 10 2 5 6
M  V30 11 1 6 9
M  V30 12 1 6 13
M  V30 13 1 7 8
M  V30 14 1 7 9
M  V30 15 1 7 14
M  V30 16 1 9 15
M  V30 END BOND
M  V30 END CTAB
M  END
>  <ID>
320
$$$$
Structure_321
Score 	 12.0, smilesprid 	smiles	 smilestrue 	smiles	 similartanimoto 	0	 similardice 	0

   15   16  0  0  0  0            999 V3000
M  V30 BEGIN CTAB
M  V30 COUNTS 15 16 0 0 0
M  V30 BEGIN ATOM
M  V30 1 C -2.5391 -0.1953 0.0000 0
M  V30 2 C -1.7578 -1.3672 0.0000 0
M  V30 3 C -1.7578 0.9766 0.0000 0
M  V30 4 C -0.3906 -0.7812 0.0000 0
M  V30 5 C -0.3906 0.5859 0.0000 0
M  V30 6 C 0.7812 1.1719 0.0000 0
M  V30 7 C 1.9531 -0.7812 0.0000 0
M  V30 8 N 0.7812 -1.5625 0.0000 0
M  V30 9 N 1.9531 0.3906 0.0000 0
M  V30 10 H -3.5156 -0.1953 0.0000 0
M  V30 11 H -2.1484 2.1484 0.0000 0
M  V30 12 H -1.9531 -2.3438 0.0000 0
M  V30 13 H 0.9766 2.3438 0.0000 0
M  V30 14 H 2.9297 -1.3672 0.0000 0
M  V30 15 H 2.7344 0.9766 0.0000 0
M  V30 END ATOM
M  V30 BEGIN BOND
M  V30 1 3 1 2
M  V30 2 2 1 3
M  V30 3 1 1 10
M  V30 4 3 2 4
M  V30 5 1 2 12
M  V30 6 3 3 5
M  V30 7 1 3 11
M  V30 8 1 4 5
M  V30 9 1 4 8
M  V30 10 2 5 6
M  V30 11 1 6 9
M  V30 12 1 6 13
M  V30 13 1 7 8
M  V30 14 1 7 9
M  V30 15 1 7 14
M  V30 16 1 9 15
M  V30 END BOND
M  V30 END CTAB
M  END
>  <ID>
321
$$$$
Structure_322
Score 	 10.0, smilesprid 	smiles	 smilestrue 	smiles	 similartanimoto 	0	 similardice 	0

   15   16  0  0  0  0            999 V3000
M  V30 BEGIN CTAB
M  V30 COUNTS 15 16 0 0 0
M  V30 BEGIN ATOM
M  V30 1 C -2.5391 -0.1953 0.0000 0
M  V30 2 C -1.7578 -1.3672 0.0000 0
M  V30 3 C -1.7578 0.9766 0.0000 0
M  V30 4 C -0.3906 -0.7812 0.0000 0
M  V30 5 C -0.3906 0.5859 0.0000 0
M  V30 6 C 0.7812 1.1719 0.0000 0
M  V30 7 C 1.9531 -0.7812 0.0000 0
M  V30 8 N 0.7812 -1.5625 0.0000 0
M  V30 9 N 1.9531 0.3906 0.0000 0
M  V30 10 H -3.5156 -0.1953 0.0000 0
M  V30 11 H -2.1484 2.1484 0.0000 0
M  V30 12 H -1.9531 -2.3438 0.0000 0
M  V30 13 H 0.9766 2.3438 0.0000 0
M  V30 14 H 2.9297 -1.3672 0.0000 0
M  V30 15 H 2.7344 0.9766 0.0000 0
M  V30 END ATOM
M  V30 BEGIN BOND
M  V30 1 1 1 2
M  V30 2 3 1 3
M  V30 3 1 1 10
M  V30 4 3 2 4
M  V30 5 1 2 12
M  V30 6 3 3 5
M  V30 7 1 3 11
M  V30 8 1 4 5
M  V30 9 1 4 8
M  V30 10 2 5 6
M  V30 11 1 6 9
M  V30 12 1 6 13
M  V30 13 1 7 8
M  V30 14 1 7 9
M  V30 15 1 7 14
M  V30 16 1 9 15
M  V30 END BOND
M  V30 END CTAB
M  END
>  <ID>
322
$$$$
Structure_323
Score 	 12.0, smilesprid 	smiles	 smilestrue 	smiles	 similartanimoto 	0	 similardice 	0

   15   16  0  0  0  0            999 V3000
M  V30 BEGIN CTAB
M  V30 COUNTS 15 16 0 0 0
M  V30 BEGIN ATOM
M  V30 1 C -2.5391 -0.1953 0.0000 0
M  V30 2 C -1.7578 -1.3672 0.0000 0
M  V30 3 C -1.7578 0.9766 0.0000 0
M  V30 4 C -0.3906 -0.7812 0.0000 0
M  V30 5 C -0.3906 0.5859 0.0000 0
M  V30 6 C 0.7812 1.1719 0.0000 0
M  V30 7 C 1.9531 -0.7812 0.0000 0
M  V30 8 N 0.7812 -1.5625 0.0000 0
M  V30 9 N 1.9531 0.3906 0.0000 0
M  V30 10 H -3.5156 -0.1953 0.0000 0
M  V30 11 H -2.1484 2.1484 0.0000 0
M  V30 12 H -1.9531 -2.3438 0.0000 0
M  V30 13 H 0.9766 2.3438 0.0000 0
M  V30 14 H 2.9297 -1.3672 0.0000 0
M  V30 15 H 2.7344 0.9766 0.0000 0
M  V30 END ATOM
M  V30 BEGIN BOND
M  V30 1 2 1 2
M  V30 2 3 1 3
M  V30 3 1 1 10
M  V30 4 3 2 4
M  V30 5 1 2 12
M  V30 6 3 3 5
M  V30 7 1 3 11
M  V30 8 1 4 5
M  V30 9 1 4 8
M  V30 10 2 5 6
M  V30 11 1 6 9
M  V30 12 1 6 13
M  V30 13 1 7 8
M  V30 14 1 7 9
M  V30 15 1 7 14
M  V30 16 1 9 15
M  V30 END BOND
M  V30 END CTAB
M  END
>  <ID>
323
$$$$
Structure_324
Score 	 14.0, smilesprid 	smiles	 smilestrue 	smiles	 similartanimoto 	0	 similardice 	0

   15   16  0  0  0  0            999 V3000
M  V30 BEGIN CTAB
M  V30 COUNTS 15 16 0 0 0
M  V30 BEGIN ATOM
M  V30 1 C -2.5391 -0.1953 0.0000 0
M  V30 2 C -1.7578 -1.3672 0.0000 0
M  V30 3 C -1.7578 0.9766 0.0000 0
M  V30 4 C -0.3906 -0.7812 0.0000 0
M  V30 5 C -0.3906 0.5859 0.0000 0
M  V30 6 C 0.7812 1.1719 0.0000 0
M  V30 7 C 1.9531 -0.7812 0.0000 0
M  V30 8 N 0.7812 -1.5625 0.0000 0
M  V30 9 N 1.9531 0.3906 0.0000 0
M  V30 10 H -3.5156 -0.1953 0.0000 0
M  V30 11 H -2.1484 2.1484 0.0000 0
M  V30 12 H -1.9531 -2.3438 0.0000 0
M  V30 13 H 0.9766 2.3438 0.0000 0
M  V30 14 H 2.9297 -1.3672 0.0000 0
M  V30 15 H 2.7344 0.9766 0.0000 0
M  V30 END ATOM
M  V30 BEGIN BOND
M  V30 1 3 1 2
M  V30 2 3 1 3
M  V30 3 1 1 10
M  V30 4 3 2 4
M  V30 5 1 2 12
M  V30 6 3 3 5
M  V30 7 1 3 11
M  V30 8 1 4 5
M  V30 9 1 4 8
M  V30 10 2 5 6
M  V30 11 1 6 9
M  V30 12 1 6 13
M  V30 13 1 7 8
M  V30 14 1 7 9
M  V30 15 1 7 14
M  V30 16 1 9 15
M  V30 END BOND
M  V30 END CTAB
M  END
>  <ID>
324
$$$$
Structure_325
Score 	 6.0, smilesprid 	smiles	 smilestrue 	smiles	 similartanimoto 	0	 similardice 	0

   15   16  0  0  0  0            999 V3000
M  V30 BEGIN CTAB
M  V30 COUNTS 15 16 0 0 0
M  V30 BEGIN ATOM
M  V30 1 C -2.5391 -0.1953 0.0000 0
M  V30 2 C -1.7578 -1.3672 0.0000 0
M  V30 3 C -1.7578 0.9766 0.0000 0
M  V30 4 C -0.3906 -0.7812 0.0000 0
M  V30 5 C -0.3906 0.5859 0.0000 0
M  V30 6 C 0.7812 1.1719 0.0000 0
M  V30 7 C 1.9531 -0.7812 0.0000 0
M  V30 8 N 0.7812 -1.5625 0.0000 0
M  V30 9 N 1.9531 0.3906 0.0000 0
M  V30 10 H -3.5156 -0.1953 0.0000 0
M  V30 11 H -2.1484 2.1484 0.0000 0
M  V30 12 H -1.9531 -2.3438 0.0000 0
M  V30 13 H 0.9766 2.3438 0.0000 0
M  V30 14 H 2.9297 -1.3672 0.0000 0
M  V30 15 H 2.7344 0.9766 0.0000 0
M  V30 END ATOM
M  V30 BEGIN BOND
M  V30 1 1 1 2
M  V30 2 1 1 3
M  V30 3 1 1 10
M  V30 4 1 2 4
M  V30 5 1 2 12
M  V30 6 1 3 5
M  V30 7 1 3 11
M  V30 8 2 4 5
M  V30 9 1 4 8
M  V30 10 2 5 6
M  V30 11 1 6 9
M  V30 12 1 6 13
M  V30 13 1 7 8
M  V30 14 1 7 9
M  V30 15 1 7 14
M  V30 16 1 9 15
M  V30 END BOND
M  V30 END CTAB
M  END
>  <ID>
325
$$$$
Structure_326
Score 	 4.0, smilesprid 	smiles	 smilestrue 	smiles	 similartanimoto 	0	 similardice 	0

   15   16  0  0  0  0            999 V3000
M  V30 BEGIN CTAB
M  V30 COUNTS 15 16 0 0 0
M  V30 BEGIN ATOM
M  V30 1 C -2.5391 -0.1953 0.0000 0
M  V30 2 C -1.7578 -1.3672 0.0000 0
M  V30 3 C -1.7578 0.9766 0.0000 0
M  V30 4 C -0.3906 -0.7812 0.0000 0
M  V30 5 C -0.3906 0.5859 0.0000 0
M  V30 6 C 0.7812 1.1719 0.0000 0
M  V30 7 C 1.9531 -0.7812 0.0000 0
M  V30 8 N 0.7812 -1.5625 0.0000 0
M  V30 9 N 1.9531 0.3906 0.0000 0
M  V30 10 H -3.5156 -0.1953 0.0000 0
M  V30 11 H -2.1484 2.1484 0.0000 0
M  V30 12 H -1.9531 -2.3438 0.0000 0
M  V30 13 H 0.9766 2.3438 0.0000 0
M  V30 14 H 2.9297 -1.3672 0.0000 0
M  V30 15 H 2.7344 0.9766 0.0000 0
M  V30 END ATOM
M  V30 BEGIN BOND
M  V30 1 2 1 2
M  V30 2 1 1 3
M  V30 3 1 1 10
M  V30 4 1 2 4
M  V30 5 1 2 12
M  V30 6 1 3 5
M  V30 7 1 3 11
M  V30 8 2 4 5
M  V30 9 1 4 8
M  V30 10 2 5 6
M  V30 11 1 6 9
M  V30 12 1 6 13
M  V30 13 1 7 8
M  V30 14 1 7 9
M  V30 15 1 7 14
M  V30 16 1 9 15
M  V30 END BOND
M  V30 END CTAB
M  END
>  <ID>
326
$$$$
Structure_327
Score 	 6.0, smilesprid 	smiles	 smilestrue 	smiles	 similartanimoto 	0	 similardice 	0

   15   16  0  0  0  0            999 V3000
M  V30 BEGIN CTAB
M  V30 COUNTS 15 16 0 0 0
M  V30 BEGIN ATOM
M  V30 1 C -2.5391 -0.1953 0.0000 0
M  V30 2 C -1.7578 -1.3672 0.0000 0
M  V30 3 C -1.7578 0.9766 0.0000 0
M  V30 4 C -0.3906 -0.7812 0.0000 0
M  V30 5 C -0.3906 0.5859 0.0000 0
M  V30 6 C 0.7812 1.1719 0.0000 0
M  V30 7 C 1.9531 -0.7812 0.0000 0
M  V30 8 N 0.7812 -1.5625 0.0000 0
M  V30 9 N 1.9531 0.3906 0.0000 0
M  V30 10 H -3.5156 -0.1953 0.0000 0
M  V30 11 H -2.1484 2.1484 0.0000 0
M  V30 12 H -1.9531 -2.3438 0.0000 0
M  V30 13 H 0.9766 2.3438 0.0000 0
M  V30 14 H 2.9297 -1.3672 0.0000 0
M  V30 15 H 2.7344 0.9766 0.0000 0
M  V30 END ATOM
M  V30 BEGIN BOND
M  V30 1 3 1 2
M  V30 2 1 1 3
M  V30 3 1 1 10
M  V30 4 1 2 4
M  V30 5 1 2 12
M  V30 6 1 3 5
M  V30 7 1 3 11
M  V30 8 2 4 5
M  V30 9 1 4 8
M  V30 10 2 5 6
M  V30 11 1 6 9
M  V30 12 1 6 13
M  V30 13 1 7 8
M  V30 14 1 7 9
M  V30 15 1 7 14
M  V30 16 1 9 15
M  V30 END BOND
M  V30 END CTAB
M  END
>  <ID>
327
$$$$
Structure_328
Score 	 4.0, smilesprid 	smiles	 smilestrue 	smiles	 similartanimoto 	0	 similardice 	0

   15   16  0  0  0  0            999 V3000
M  V30 BEGIN CTAB
M  V30 COUNTS 15 16 0 0 0
M  V30 BEGIN ATOM
M  V30 1 C -2.5391 -0.1953 0.0000 0
M  V30 2 C -1.7578 -1.3672 0.0000 0
M  V30 3 C -1.7578 0.9766 0.0000 0
M  V30 4 C -0.3906 -0.7812 0.0000 0
M  V30 5 C -0.3906 0.5859 0.0000 0
M  V30 6 C 0.7812 1.1719 0.0000 0
M  V30 7 C 1.9531 -0.7812 0.0000 0
M  V30 8 N 0.7812 -1.5625 0.0000 0
M  V30 9 N 1.9531 0.3906 0.0000 0
M  V30 10 H -3.5156 -0.1953 0.0000 0
M  V30 11 H -2.1484 2.1484 0.0000 0
M  V30 12 H -1.9531 -2.3438 0.0000 0
M  V30 13 H 0.9766 2.3438 0.0000 0
M  V30 14 H 2.9297 -1.3672 0.0000 0
M  V30 15 H 2.7344 0.9766 0.0000 0
M  V30 END ATOM
M  V30 BEGIN BOND
M  V30 1 1 1 2
M  V30 2 2 1 3
M  V30 3 1 1 10
M  V30 4 1 2 4
M  V30 5 1 2 12
M  V30 6 1 3 5
M  V30 7 1 3 11
M  V30 8 2 4 5
M  V30 9 1 4 8
M  V30 10 2 5 6
M  V30 11 1 6 9
M  V30 12 1 6 13
M  V30 13 1 7 8
M  V30 14 1 7 9
M  V30 15 1 7 14
M  V30 16 1 9 15
M  V30 END BOND
M  V30 END CTAB
M  END
>  <ID>
328
$$$$
Structure_329
Score 	 4.0, smilesprid 	smiles	 smilestrue 	smiles	 similartanimoto 	0	 similardice 	0

   15   16  0  0  0  0            999 V3000
M  V30 BEGIN CTAB
M  V30 COUNTS 15 16 0 0 0
M  V30 BEGIN ATOM
M  V30 1 C -2.5391 -0.1953 0.0000 0
M  V30 2 C -1.7578 -1.3672 0.0000 0
M  V30 3 C -1.7578 0.9766 0.0000 0
M  V30 4 C -0.3906 -0.7812 0.0000 0
M  V30 5 C -0.3906 0.5859 0.0000 0
M  V30 6 C 0.7812 1.1719 0.0000 0
M  V30 7 C 1.9531 -0.7812 0.0000 0
M  V30 8 N 0.7812 -1.5625 0.0000 0
M  V30 9 N 1.9531 0.3906 0.0000 0
M  V30 10 H -3.5156 -0.1953 0.0000 0
M  V30 11 H -2.1484 2.1484 0.0000 0
M  V30 12 H -1.9531 -2.3438 0.0000 0
M  V30 13 H 0.9766 2.3438 0.0000 0
M  V30 14 H 2.9297 -1.3672 0.0000 0
M  V30 15 H 2.7344 0.9766 0.0000 0
M  V30 END ATOM
M  V30 BEGIN BOND
M  V30 1 2 1 2
M  V30 2 2 1 3
M  V30 3 1 1 10
M  V30 4 1 2 4
M  V30 5 1 2 12
M  V30 6 1 3 5
M  V30 7 1 3 11
M  V30 8 2 4 5
M  V30 9 1 4 8
M  V30 10 2 5 6
M  V30 11 1 6 9
M  V30 12 1 6 13
M  V30 13 1 7 8
M  V30 14 1 7 9
M  V30 15 1 7 14
M  V30 16 1 9 15
M  V30 END BOND
M  V30 END CTAB
M  END
>  <ID>
329
$$$$
Structure_330
Score 	 6.0, smilesprid 	smiles	 smilestrue 	smiles	 similartanimoto 	0	 similardice 	0

   15   16  0  0  0  0            999 V3000
M  V30 BEGIN CTAB
M  V30 COUNTS 15 16 0 0 0
M  V30 BEGIN ATOM
M  V30 1 C -2.5391 -0.1953 0.0000 0
M  V30 2 C -1.7578 -1.3672 0.0000 0
M  V30 3 C -1.7578 0.9766 0.0000 0
M  V30 4 C -0.3906 -0.7812 0.0000 0
M  V30 5 C -0.3906 0.5859 0.0000 0
M  V30 6 C 0.7812 1.1719 0.0000 0
M  V30 7 C 1.9531 -0.7812 0.0000 0
M  V30 8 N 0.7812 -1.5625 0.0000 0
M  V30 9 N 1.9531 0.3906 0.0000 0
M  V30 10 H -3.5156 -0.1953 0.0000 0
M  V30 11 H -2.1484 2.1484 0.0000 0
M  V30 12 H -1.9531 -2.3438 0.0000 0
M  V30 13 H 0.9766 2.3438 0.0000 0
M  V30 14 H 2.9297 -1.3672 0.0000 0
M  V30 15 H 2.7344 0.9766 0.0000 0
M  V30 END ATOM
M  V30 BEGIN BOND
M  V30 1 3 1 2
M  V30 2 2 1 3
M  V30 3 1 1 10
M  V30 4 1 2 4
M  V30 5 1 2 12
M  V30 6 1 3 5
M  V30 7 1 3 11
M  V30 8 2 4 5
M  V30 9 1 4 8
M  V30 10 2 5 6
M  V30 11 1 6 9
M  V30 12 1 6 13
M  V30 13 1 7 8
M  V30 14 1 7 9
M  V30 15 1 7 14
M  V30 16 1 9 15
M  V30 END BOND
M  V30 END CTAB
M  END
>  <ID>
330
$$$$
Structure_331
Score 	 6.0, smilesprid 	smiles	 smilestrue 	smiles	 similartanimoto 	0	 similardice 	0

   15   16  0  0  0  0            999 V3000
M  V30 BEGIN CTAB
M  V30 COUNTS 15 16 0 0 0
M  V30 BEGIN ATOM
M  V30 1 C -2.5391 -0.1953 0.0000 0
M  V30 2 C -1.7578 -1.3672 0.0000 0
M  V30 3 C -1.7578 0.9766 0.0000 0
M  V30 4 C -0.3906 -0.7812 0.0000 0
M  V30 5 C -0.3906 0.5859 0.0000 0
M  V30 6 C 0.7812 1.1719 0.0000 0
M  V30 7 C 1.9531 -0.7812 0.0000 0
M  V30 8 N 0.7812 -1.5625 0.0000 0
M  V30 9 N 1.9531 0.3906 0.0000 0
M  V30 10 H -3.5156 -0.1953 0.0000 0
M  V30 11 H -2.1484 2.1484 0.0000 0
M  V30 12 H -1.9531 -2.3438 0.0000 0
M  V30 13 H 0.9766 2.3438 0.0000 0
M  V30 14 H 2.9297 -1.3672 0.0000 0
M  V30 15 H 2.7344 0.9766 0.0000 0
M  V30 END ATOM
M  V30 BEGIN BOND
M  V30 1 1 1 2
M  V30 2 3 1 3
M  V30 3 1 1 10
M  V30 4 1 2 4
M  V30 5 1 2 12
M  V30 6 1 3 5
M  V30 7 1 3 11
M  V30 8 2 4 5
M  V30 9 1 4 8
M  V30 10 2 5 6
M  V30 11 1 6 9
M  V30 12 1 6 13
M  V30 13 1 7 8
M  V30 14 1 7 9
M  V30 15 1 7 14
M  V30 16 1 9 15
M  V30 END BOND
M  V30 END CTAB
M  END
>  <ID>
331
$$$$
Structure_332
Score 	 6.0, smilesprid 	smiles	 smilestrue 	smiles	 similartanimoto 	0	 similardice 	0

   15   16  0  0  0  0            999 V3000
M  V30 BEGIN CTAB
M  V30 COUNTS 15 16 0 0 0
M  V30 BEGIN ATOM
M  V30 1 C -2.5391 -0.1953 0.0000 0
M  V30 2 C -1.7578 -1.3672 0.0000 0
M  V30 3 C -1.7578 0.9766 0.0000 0
M  V30 4 C -0.3906 -0.7812 0.0000 0
M  V30 5 C -0.3906 0.5859 0.0000 0
M  V30 6 C 0.7812 1.1719 0.0000 0
M  V30 7 C 1.9531 -0.7812 0.0000 0
M  V30 8 N 0.7812 -1.5625 0.0000 0
M  V30 9 N 1.9531 0.3906 0.0000 0
M  V30 10 H -3.5156 -0.1953 0.0000 0
M  V30 11 H -2.1484 2.1484 0.0000 0
M  V30 12 H -1.9531 -2.3438 0.0000 0
M  V30 13 H 0.9766 2.3438 0.0000 0
M  V30 14 H 2.9297 -1.3672 0.0000 0
M  V30 15 H 2.7344 0.9766 0.0000 0
M  V30 END ATOM
M  V30 BEGIN BOND
M  V30 1 2 1 2
M  V30 2 3 1 3
M  V30 3 1 1 10
M  V30 4 1 2 4
M  V30 5 1 2 12
M  V30 6 1 3 5
M  V30 7 1 3 11
M  V30 8 2 4 5
M  V30 9 1 4 8
M  V30 10 2 5 6
M  V30 11 1 6 9
M  V30 12 1 6 13
M  V30 13 1 7 8
M  V30 14 1 7 9
M  V30 15 1 7 14
M  V30 16 1 9 15
M  V30 END BOND
M  V30 END CTAB
M  END
>  <ID>
332
$$$$
Structure_333
Score 	 8.0, smilesprid 	smiles	 smilestrue 	smiles	 similartanimoto 	0	 similardice 	0

   15   16  0  0  0  0            999 V3000
M  V30 BEGIN CTAB
M  V30 COUNTS 15 16 0 0 0
M  V30 BEGIN ATOM
M  V30 1 C -2.5391 -0.1953 0.0000 0
M  V30 2 C -1.7578 -1.3672 0.0000 0
M  V30 3 C -1.7578 0.9766 0.0000 0
M  V30 4 C -0.3906 -0.7812 0.0000 0
M  V30 5 C -0.3906 0.5859 0.0000 0
M  V30 6 C 0.7812 1.1719 0.0000 0
M  V30 7 C 1.9531 -0.7812 0.0000 0
M  V30 8 N 0.7812 -1.5625 0.0000 0
M  V30 9 N 1.9531 0.3906 0.0000 0
M  V30 10 H -3.5156 -0.1953 0.0000 0
M  V30 11 H -2.1484 2.1484 0.0000 0
M  V30 12 H -1.9531 -2.3438 0.0000 0
M  V30 13 H 0.9766 2.3438 0.0000 0
M  V30 14 H 2.9297 -1.3672 0.0000 0
M  V30 15 H 2.7344 0.9766 0.0000 0
M  V30 END ATOM
M  V30 BEGIN BOND
M  V30 1 3 1 2
M  V30 2 3 1 3
M  V30 3 1 1 10
M  V30 4 1 2 4
M  V30 5 1 2 12
M  V30 6 1 3 5
M  V30 7 1 3 11
M  V30 8 2 4 5
M  V30 9 1 4 8
M  V30 10 2 5 6
M  V30 11 1 6 9
M  V30 12 1 6 13
M  V30 13 1 7 8
M  V30 14 1 7 9
M  V30 15 1 7 14
M  V30 16 1 9 15
M  V30 END BOND
M  V30 END CTAB
M  END
>  <ID>
333
$$$$
Structure_334
Score 	 6.0, smilesprid 	smiles	 smilestrue 	smiles	 similartanimoto 	0	 similardice 	0

   15   16  0  0  0  0            999 V3000
M  V30 BEGIN CTAB
M  V30 COUNTS 15 16 0 0 0
M  V30 BEGIN ATOM
M  V30 1 C -2.5391 -0.1953 0.0000 0
M  V30 2 C -1.7578 -1.3672 0.0000 0
M  V30 3 C -1.7578 0.9766 0.0000 0
M  V30 4 C -0.3906 -0.7812 0.0000 0
M  V30 5 C -0.3906 0.5859 0.0000 0
M  V30 6 C 0.7812 1.1719 0.0000 0
M  V30 7 C 1.9531 -0.7812 0.0000 0
M  V30 8 N 0.7812 -1.5625 0.0000 0
M  V30 9 N 1.9531 0.3906 0.0000 0
M  V30 10 H -3.5156 -0.1953 0.0000 0
M  V30 11 H -2.1484 2.1484 0.0000 0
M  V30 12 H -1.9531 -2.3438 0.0000 0
M  V30 13 H 0.9766 2.3438 0.0000 0
M  V30 14 H 2.9297 -1.3672 0.0000 0
M  V30 15 H 2.7344 0.9766 0.0000 0
M  V30 END ATOM
M  V30 BEGIN BOND
M  V30 1 1 1 2
M  V30 2 1 1 3
M  V30 3 1 1 10
M  V30 4 1 2 4
M  V30 5 1 2 12
M  V30 6 2 3 5
M  V30 7 1 3 11
M  V30 8 2 4 5
M  V30 9 1 4 8
M  V30 10 2 5 6
M  V30 11 1 6 9
M  V30 12 1 6 13
M  V30 13 1 7 8
M  V30 14 1 7 9
M  V30 15 1 7 14
M  V30 16 1 9 15
M  V30 END BOND
M  V30 END CTAB
M  END
>  <ID>
334
$$$$
Structure_335
Score 	 4.0, smilesprid 	smiles	 smilestrue 	smiles	 similartanimoto 	0	 similardice 	0

   15   16  0  0  0  0            999 V3000
M  V30 BEGIN CTAB
M  V30 COUNTS 15 16 0 0 0
M  V30 BEGIN ATOM
M  V30 1 C -2.5391 -0.1953 0.0000 0
M  V30 2 C -1.7578 -1.3672 0.0000 0
M  V30 3 C -1.7578 0.9766 0.0000 0
M  V30 4 C -0.3906 -0.7812 0.0000 0
M  V30 5 C -0.3906 0.5859 0.0000 0
M  V30 6 C 0.7812 1.1719 0.0000 0
M  V30 7 C 1.9531 -0.7812 0.0000 0
M  V30 8 N 0.7812 -1.5625 0.0000 0
M  V30 9 N 1.9531 0.3906 0.0000 0
M  V30 10 H -3.5156 -0.1953 0.0000 0
M  V30 11 H -2.1484 2.1484 0.0000 0
M  V30 12 H -1.9531 -2.3438 0.0000 0
M  V30 13 H 0.9766 2.3438 0.0000 0
M  V30 14 H 2.9297 -1.3672 0.0000 0
M  V30 15 H 2.7344 0.9766 0.0000 0
M  V30 END ATOM
M  V30 BEGIN BOND
M  V30 1 2 1 2
M  V30 2 1 1 3
M  V30 3 1 1 10
M  V30 4 1 2 4
M  V30 5 1 2 12
M  V30 6 2 3 5
M  V30 7 1 3 11
M  V30 8 2 4 5
M  V30 9 1 4 8
M  V30 10 2 5 6
M  V30 11 1 6 9
M  V30 12 1 6 13
M  V30 13 1 7 8
M  V30 14 1 7 9
M  V30 15 1 7 14
M  V30 16 1 9 15
M  V30 END BOND
M  V30 END CTAB
M  END
>  <ID>
335
$$$$
Structure_336
Score 	 6.0, smilesprid 	smiles	 smilestrue 	smiles	 similartanimoto 	0	 similardice 	0

   15   16  0  0  0  0            999 V3000
M  V30 BEGIN CTAB
M  V30 COUNTS 15 16 0 0 0
M  V30 BEGIN ATOM
M  V30 1 C -2.5391 -0.1953 0.0000 0
M  V30 2 C -1.7578 -1.3672 0.0000 0
M  V30 3 C -1.7578 0.9766 0.0000 0
M  V30 4 C -0.3906 -0.7812 0.0000 0
M  V30 5 C -0.3906 0.5859 0.0000 0
M  V30 6 C 0.7812 1.1719 0.0000 0
M  V30 7 C 1.9531 -0.7812 0.0000 0
M  V30 8 N 0.7812 -1.5625 0.0000 0
M  V30 9 N 1.9531 0.3906 0.0000 0
M  V30 10 H -3.5156 -0.1953 0.0000 0
M  V30 11 H -2.1484 2.1484 0.0000 0
M  V30 12 H -1.9531 -2.3438 0.0000 0
M  V30 13 H 0.9766 2.3438 0.0000 0
M  V30 14 H 2.9297 -1.3672 0.0000 0
M  V30 15 H 2.7344 0.9766 0.0000 0
M  V30 END ATOM
M  V30 BEGIN BOND
M  V30 1 3 1 2
M  V30 2 1 1 3
M  V30 3 1 1 10
M  V30 4 1 2 4
M  V30 5 1 2 12
M  V30 6 2 3 5
M  V30 7 1 3 11
M  V30 8 2 4 5
M  V30 9 1 4 8
M  V30 10 2 5 6
M  V30 11 1 6 9
M  V30 12 1 6 13
M  V30 13 1 7 8
M  V30 14 1 7 9
M  V30 15 1 7 14
M  V30 16 1 9 15
M  V30 END BOND
M  V30 END CTAB
M  END
>  <ID>
336
$$$$
Structure_337
Score 	 6.0, smilesprid 	smiles	 smilestrue 	smiles	 similartanimoto 	0	 similardice 	0

   15   16  0  0  0  0            999 V3000
M  V30 BEGIN CTAB
M  V30 COUNTS 15 16 0 0 0
M  V30 BEGIN ATOM
M  V30 1 C -2.5391 -0.1953 0.0000 0
M  V30 2 C -1.7578 -1.3672 0.0000 0
M  V30 3 C -1.7578 0.9766 0.0000 0
M  V30 4 C -0.3906 -0.7812 0.0000 0
M  V30 5 C -0.3906 0.5859 0.0000 0
M  V30 6 C 0.7812 1.1719 0.0000 0
M  V30 7 C 1.9531 -0.7812 0.0000 0
M  V30 8 N 0.7812 -1.5625 0.0000 0
M  V30 9 N 1.9531 0.3906 0.0000 0
M  V30 10 H -3.5156 -0.1953 0.0000 0
M  V30 11 H -2.1484 2.1484 0.0000 0
M  V30 12 H -1.9531 -2.3438 0.0000 0
M  V30 13 H 0.9766 2.3438 0.0000 0
M  V30 14 H 2.9297 -1.3672 0.0000 0
M  V30 15 H 2.7344 0.9766 0.0000 0
M  V30 END ATOM
M  V30 BEGIN BOND
M  V30 1 1 1 2
M  V30 2 2 1 3
M  V30 3 1 1 10
M  V30 4 1 2 4
M  V30 5 1 2 12
M  V30 6 2 3 5
M  V30 7 1 3 11
M  V30 8 2 4 5
M  V30 9 1 4 8
M  V30 10 2 5 6
M  V30 11 1 6 9
M  V30 12 1 6 13
M  V30 13 1 7 8
M  V30 14 1 7 9
M  V30 15 1 7 14
M  V30 16 1 9 15
M  V30 END BOND
M  V30 END CTAB
M  END
>  <ID>
337
$$$$
Structure_338
Score 	 6.0, smilesprid 	smiles	 smilestrue 	smiles	 similartanimoto 	0	 similardice 	0

   15   16  0  0  0  0            999 V3000
M  V30 BEGIN CTAB
M  V30 COUNTS 15 16 0 0 0
M  V30 BEGIN ATOM
M  V30 1 C -2.5391 -0.1953 0.0000 0
M  V30 2 C -1.7578 -1.3672 0.0000 0
M  V30 3 C -1.7578 0.9766 0.0000 0
M  V30 4 C -0.3906 -0.7812 0.0000 0
M  V30 5 C -0.3906 0.5859 0.0000 0
M  V30 6 C 0.7812 1.1719 0.0000 0
M  V30 7 C 1.9531 -0.7812 0.0000 0
M  V30 8 N 0.7812 -1.5625 0.0000 0
M  V30 9 N 1.9531 0.3906 0.0000 0
M  V30 10 H -3.5156 -0.1953 0.0000 0
M  V30 11 H -2.1484 2.1484 0.0000 0
M  V30 12 H -1.9531 -2.3438 0.0000 0
M  V30 13 H 0.9766 2.3438 0.0000 0
M  V30 14 H 2.9297 -1.3672 0.0000 0
M  V30 15 H 2.7344 0.9766 0.0000 0
M  V30 END ATOM
M  V30 BEGIN BOND
M  V30 1 2 1 2
M  V30 2 2 1 3
M  V30 3 1 1 10
M  V30 4 1 2 4
M  V30 5 1 2 12
M  V30 6 2 3 5
M  V30 7 1 3 11
M  V30 8 2 4 5
M  V30 9 1 4 8
M  V30 10 2 5 6
M  V30 11 1 6 9
M  V30 12 1 6 13
M  V30 13 1 7 8
M  V30 14 1 7 9
M  V30 15 1 7 14
M  V30 16 1 9 15
M  V30 END BOND
M  V30 END CTAB
M  END
>  <ID>
338
$$$$
Structure_339
Score 	 8.0, smilesprid 	smiles	 smilestrue 	smiles	 similartanimoto 	0	 similardice 	0

   15   16  0  0  0  0            999 V3000
M  V30 BEGIN CTAB
M  V30 COUNTS 15 16 0 0 0
M  V30 BEGIN ATOM
M  V30 1 C -2.5391 -0.1953 0.0000 0
M  V30 2 C -1.7578 -1.3672 0.0000 0
M  V30 3 C -1.7578 0.9766 0.0000 0
M  V30 4 C -0.3906 -0.7812 0.0000 0
M  V30 5 C -0.3906 0.5859 0.0000 0
M  V30 6 C 0.7812 1.1719 0.0000 0
M  V30 7 C 1.9531 -0.7812 0.0000 0
M  V30 8 N 0.7812 -1.5625 0.0000 0
M  V30 9 N 1.9531 0.3906 0.0000 0
M  V30 10 H -3.5156 -0.1953 0.0000 0
M  V30 11 H -2.1484 2.1484 0.0000 0
M  V30 12 H -1.9531 -2.3438 0.0000 0
M  V30 13 H 0.9766 2.3438 0.0000 0
M  V30 14 H 2.9297 -1.3672 0.0000 0
M  V30 15 H 2.7344 0.9766 0.0000 0
M  V30 END ATOM
M  V30 BEGIN BOND
M  V30 1 3 1 2
M  V30 2 2 1 3
M  V30 3 1 1 10
M  V30 4 1 2 4
M  V30 5 1 2 12
M  V30 6 2 3 5
M  V30 7 1 3 11
M  V30 8 2 4 5
M  V30 9 1 4 8
M  V30 10 2 5 6
M  V30 11 1 6 9
M  V30 12 1 6 13
M  V30 13 1 7 8
M  V30 14 1 7 9
M  V30 15 1 7 14
M  V30 16 1 9 15
M  V30 END BOND
M  V30 END CTAB
M  END
>  <ID>
339
$$$$
Structure_340
Score 	 8.0, smilesprid 	smiles	 smilestrue 	smiles	 similartanimoto 	0	 similardice 	0

   15   16  0  0  0  0            999 V3000
M  V30 BEGIN CTAB
M  V30 COUNTS 15 16 0 0 0
M  V30 BEGIN ATOM
M  V30 1 C -2.5391 -0.1953 0.0000 0
M  V30 2 C -1.7578 -1.3672 0.0000 0
M  V30 3 C -1.7578 0.9766 0.0000 0
M  V30 4 C -0.3906 -0.7812 0.0000 0
M  V30 5 C -0.3906 0.5859 0.0000 0
M  V30 6 C 0.7812 1.1719 0.0000 0
M  V30 7 C 1.9531 -0.7812 0.0000 0
M  V30 8 N 0.7812 -1.5625 0.0000 0
M  V30 9 N 1.9531 0.3906 0.0000 0
M  V30 10 H -3.5156 -0.1953 0.0000 0
M  V30 11 H -2.1484 2.1484 0.0000 0
M  V30 12 H -1.9531 -2.3438 0.0000 0
M  V30 13 H 0.9766 2.3438 0.0000 0
M  V30 14 H 2.9297 -1.3672 0.0000 0
M  V30 15 H 2.7344 0.9766 0.0000 0
M  V30 END ATOM
M  V30 BEGIN BOND
M  V30 1 1 1 2
M  V30 2 3 1 3
M  V30 3 1 1 10
M  V30 4 1 2 4
M  V30 5 1 2 12
M  V30 6 2 3 5
M  V30 7 1 3 11
M  V30 8 2 4 5
M  V30 9 1 4 8
M  V30 10 2 5 6
M  V30 11 1 6 9
M  V30 12 1 6 13
M  V30 13 1 7 8
M  V30 14 1 7 9
M  V30 15 1 7 14
M  V30 16 1 9 15
M  V30 END BOND
M  V30 END CTAB
M  END
>  <ID>
340
$$$$
Structure_341
Score 	 8.0, smilesprid 	smiles	 smilestrue 	smiles	 similartanimoto 	0	 similardice 	0

   15   16  0  0  0  0            999 V3000
M  V30 BEGIN CTAB
M  V30 COUNTS 15 16 0 0 0
M  V30 BEGIN ATOM
M  V30 1 C -2.5391 -0.1953 0.0000 0
M  V30 2 C -1.7578 -1.3672 0.0000 0
M  V30 3 C -1.7578 0.9766 0.0000 0
M  V30 4 C -0.3906 -0.7812 0.0000 0
M  V30 5 C -0.3906 0.5859 0.0000 0
M  V30 6 C 0.7812 1.1719 0.0000 0
M  V30 7 C 1.9531 -0.7812 0.0000 0
M  V30 8 N 0.7812 -1.5625 0.0000 0
M  V30 9 N 1.9531 0.3906 0.0000 0
M  V30 10 H -3.5156 -0.1953 0.0000 0
M  V30 11 H -2.1484 2.1484 0.0000 0
M  V30 12 H -1.9531 -2.3438 0.0000 0
M  V30 13 H 0.9766 2.3438 0.0000 0
M  V30 14 H 2.9297 -1.3672 0.0000 0
M  V30 15 H 2.7344 0.9766 0.0000 0
M  V30 END ATOM
M  V30 BEGIN BOND
M  V30 1 2 1 2
M  V30 2 3 1 3
M  V30 3 1 1 10
M  V30 4 1 2 4
M  V30 5 1 2 12
M  V30 6 2 3 5
M  V30 7 1 3 11
M  V30 8 2 4 5
M  V30 9 1 4 8
M  V30 10 2 5 6
M  V30 11 1 6 9
M  V30 12 1 6 13
M  V30 13 1 7 8
M  V30 14 1 7 9
M  V30 15 1 7 14
M  V30 16 1 9 15
M  V30 END BOND
M  V30 END CTAB
M  END
>  <ID>
341
$$$$
Structure_342
Score 	 10.0, smilesprid 	smiles	 smilestrue 	smiles	 similartanimoto 	0	 similardice 	0

   15   16  0  0  0  0            999 V3000
M  V30 BEGIN CTAB
M  V30 COUNTS 15 16 0 0 0
M  V30 BEGIN ATOM
M  V30 1 C -2.5391 -0.1953 0.0000 0
M  V30 2 C -1.7578 -1.3672 0.0000 0
M  V30 3 C -1.7578 0.9766 0.0000 0
M  V30 4 C -0.3906 -0.7812 0.0000 0
M  V30 5 C -0.3906 0.5859 0.0000 0
M  V30 6 C 0.7812 1.1719 0.0000 0
M  V30 7 C 1.9531 -0.7812 0.0000 0
M  V30 8 N 0.7812 -1.5625 0.0000 0
M  V30 9 N 1.9531 0.3906 0.0000 0
M  V30 10 H -3.5156 -0.1953 0.0000 0
M  V30 11 H -2.1484 2.1484 0.0000 0
M  V30 12 H -1.9531 -2.3438 0.0000 0
M  V30 13 H 0.9766 2.3438 0.0000 0
M  V30 14 H 2.9297 -1.3672 0.0000 0
M  V30 15 H 2.7344 0.9766 0.0000 0
M  V30 END ATOM
M  V30 BEGIN BOND
M  V30 1 3 1 2
M  V30 2 3 1 3
M  V30 3 1 1 10
M  V30 4 1 2 4
M  V30 5 1 2 12
M  V30 6 2 3 5
M  V30 7 1 3 11
M  V30 8 2 4 5
M  V30 9 1 4 8
M  V30 10 2 5 6
M  V30 11 1 6 9
M  V30 12 1 6 13
M  V30 13 1 7 8
M  V30 14 1 7 9
M  V30 15 1 7 14
M  V30 16 1 9 15
M  V30 END BOND
M  V30 END CTAB
M  END
>  <ID>
342
$$$$
Structure_343
Score 	 8.0, smilesprid 	smiles	 smilestrue 	smiles	 similartanimoto 	0	 similardice 	0

   15   16  0  0  0  0            999 V3000
M  V30 BEGIN CTAB
M  V30 COUNTS 15 16 0 0 0
M  V30 BEGIN ATOM
M  V30 1 C -2.5391 -0.1953 0.0000 0
M  V30 2 C -1.7578 -1.3672 0.0000 0
M  V30 3 C -1.7578 0.9766 0.0000 0
M  V30 4 C -0.3906 -0.7812 0.0000 0
M  V30 5 C -0.3906 0.5859 0.0000 0
M  V30 6 C 0.7812 1.1719 0.0000 0
M  V30 7 C 1.9531 -0.7812 0.0000 0
M  V30 8 N 0.7812 -1.5625 0.0000 0
M  V30 9 N 1.9531 0.3906 0.0000 0
M  V30 10 H -3.5156 -0.1953 0.0000 0
M  V30 11 H -2.1484 2.1484 0.0000 0
M  V30 12 H -1.9531 -2.3438 0.0000 0
M  V30 13 H 0.9766 2.3438 0.0000 0
M  V30 14 H 2.9297 -1.3672 0.0000 0
M  V30 15 H 2.7344 0.9766 0.0000 0
M  V30 END ATOM
M  V30 BEGIN BOND
M  V30 1 1 1 2
M  V30 2 1 1 3
M  V30 3 1 1 10
M  V30 4 1 2 4
M  V30 5 1 2 12
M  V30 6 3 3 5
M  V30 7 1 3 11
M  V30 8 2 4 5
M  V30 9 1 4 8
M  V30 10 2 5 6
M  V30 11 1 6 9
M  V30 12 1 6 13
M  V30 13 1 7 8
M  V30 14 1 7 9
M  V30 15 1 7 14
M  V30 16 1 9 15
M  V30 END BOND
M  V30 END CTAB
M  END
>  <ID>
343
$$$$
Structure_344
Score 	 6.0, smilesprid 	smiles	 smilestrue 	smiles	 similartanimoto 	0	 similardice 	0

   15   16  0  0  0  0            999 V3000
M  V30 BEGIN CTAB
M  V30 COUNTS 15 16 0 0 0
M  V30 BEGIN ATOM
M  V30 1 C -2.5391 -0.1953 0.0000 0
M  V30 2 C -1.7578 -1.3672 0.0000 0
M  V30 3 C -1.7578 0.9766 0.0000 0
M  V30 4 C -0.3906 -0.7812 0.0000 0
M  V30 5 C -0.3906 0.5859 0.0000 0
M  V30 6 C 0.7812 1.1719 0.0000 0
M  V30 7 C 1.9531 -0.7812 0.0000 0
M  V30 8 N 0.7812 -1.5625 0.0000 0
M  V30 9 N 1.9531 0.3906 0.0000 0
M  V30 10 H -3.5156 -0.1953 0.0000 0
M  V30 11 H -2.1484 2.1484 0.0000 0
M  V30 12 H -1.9531 -2.3438 0.0000 0
M  V30 13 H 0.9766 2.3438 0.0000 0
M  V30 14 H 2.9297 -1.3672 0.0000 0
M  V30 15 H 2.7344 0.9766 0.0000 0
M  V30 END ATOM
M  V30 BEGIN BOND
M  V30 1 2 1 2
M  V30 2 1 1 3
M  V30 3 1 1 10
M  V30 4 1 2 4
M  V30 5 1 2 12
M  V30 6 3 3 5
M  V30 7 1 3 11
M  V30 8 2 4 5
M  V30 9 1 4 8
M  V30 10 2 5 6
M  V30 11 1 6 9
M  V30 12 1 6 13
M  V30 13 1 7 8
M  V30 14 1 7 9
M  V30 15 1 7 14
M  V30 16 1 9 15
M  V30 END BOND
M  V30 END CTAB
M  END
>  <ID>
344
$$$$
Structure_345
Score 	 8.0, smilesprid 	smiles	 smilestrue 	smiles	 similartanimoto 	0	 similardice 	0

   15   16  0  0  0  0            999 V3000
M  V30 BEGIN CTAB
M  V30 COUNTS 15 16 0 0 0
M  V30 BEGIN ATOM
M  V30 1 C -2.5391 -0.1953 0.0000 0
M  V30 2 C -1.7578 -1.3672 0.0000 0
M  V30 3 C -1.7578 0.9766 0.0000 0
M  V30 4 C -0.3906 -0.7812 0.0000 0
M  V30 5 C -0.3906 0.5859 0.0000 0
M  V30 6 C 0.7812 1.1719 0.0000 0
M  V30 7 C 1.9531 -0.7812 0.0000 0
M  V30 8 N 0.7812 -1.5625 0.0000 0
M  V30 9 N 1.9531 0.3906 0.0000 0
M  V30 10 H -3.5156 -0.1953 0.0000 0
M  V30 11 H -2.1484 2.1484 0.0000 0
M  V30 12 H -1.9531 -2.3438 0.0000 0
M  V30 13 H 0.9766 2.3438 0.0000 0
M  V30 14 H 2.9297 -1.3672 0.0000 0
M  V30 15 H 2.7344 0.9766 0.0000 0
M  V30 END ATOM
M  V30 BEGIN BOND
M  V30 1 3 1 2
M  V30 2 1 1 3
M  V30 3 1 1 10
M  V30 4 1 2 4
M  V30 5 1 2 12
M  V30 6 3 3 5
M  V30 7 1 3 11
M  V30 8 2 4 5
M  V30 9 1 4 8
M  V30 10 2 5 6
M  V30 11 1 6 9
M  V30 12 1 6 13
M  V30 13 1 7 8
M  V30 14 1 7 9
M  V30 15 1 7 14
M  V30 16 1 9 15
M  V30 END BOND
M  V30 END CTAB
M  END
>  <ID>
345
$$$$
Structure_346
Score 	 8.0, smilesprid 	smiles	 smilestrue 	smiles	 similartanimoto 	0	 similardice 	0

   15   16  0  0  0  0            999 V3000
M  V30 BEGIN CTAB
M  V30 COUNTS 15 16 0 0 0
M  V30 BEGIN ATOM
M  V30 1 C -2.5391 -0.1953 0.0000 0
M  V30 2 C -1.7578 -1.3672 0.0000 0
M  V30 3 C -1.7578 0.9766 0.0000 0
M  V30 4 C -0.3906 -0.7812 0.0000 0
M  V30 5 C -0.3906 0.5859 0.0000 0
M  V30 6 C 0.7812 1.1719 0.0000 0
M  V30 7 C 1.9531 -0.7812 0.0000 0
M  V30 8 N 0.7812 -1.5625 0.0000 0
M  V30 9 N 1.9531 0.3906 0.0000 0
M  V30 10 H -3.5156 -0.1953 0.0000 0
M  V30 11 H -2.1484 2.1484 0.0000 0
M  V30 12 H -1.9531 -2.3438 0.0000 0
M  V30 13 H 0.9766 2.3438 0.0000 0
M  V30 14 H 2.9297 -1.3672 0.0000 0
M  V30 15 H 2.7344 0.9766 0.0000 0
M  V30 END ATOM
M  V30 BEGIN BOND
M  V30 1 1 1 2
M  V30 2 2 1 3
M  V30 3 1 1 10
M  V30 4 1 2 4
M  V30 5 1 2 12
M  V30 6 3 3 5
M  V30 7 1 3 11
M  V30 8 2 4 5
M  V30 9 1 4 8
M  V30 10 2 5 6
M  V30 11 1 6 9
M  V30 12 1 6 13
M  V30 13 1 7 8
M  V30 14 1 7 9
M  V30 15 1 7 14
M  V30 16 1 9 15
M  V30 END BOND
M  V30 END CTAB
M  END
>  <ID>
346
$$$$
Structure_347
Score 	 8.0, smilesprid 	smiles	 smilestrue 	smiles	 similartanimoto 	0	 similardice 	0

   15   16  0  0  0  0            999 V3000
M  V30 BEGIN CTAB
M  V30 COUNTS 15 16 0 0 0
M  V30 BEGIN ATOM
M  V30 1 C -2.5391 -0.1953 0.0000 0
M  V30 2 C -1.7578 -1.3672 0.0000 0
M  V30 3 C -1.7578 0.9766 0.0000 0
M  V30 4 C -0.3906 -0.7812 0.0000 0
M  V30 5 C -0.3906 0.5859 0.0000 0
M  V30 6 C 0.7812 1.1719 0.0000 0
M  V30 7 C 1.9531 -0.7812 0.0000 0
M  V30 8 N 0.7812 -1.5625 0.0000 0
M  V30 9 N 1.9531 0.3906 0.0000 0
M  V30 10 H -3.5156 -0.1953 0.0000 0
M  V30 11 H -2.1484 2.1484 0.0000 0
M  V30 12 H -1.9531 -2.3438 0.0000 0
M  V30 13 H 0.9766 2.3438 0.0000 0
M  V30 14 H 2.9297 -1.3672 0.0000 0
M  V30 15 H 2.7344 0.9766 0.0000 0
M  V30 END ATOM
M  V30 BEGIN BOND
M  V30 1 2 1 2
M  V30 2 2 1 3
M  V30 3 1 1 10
M  V30 4 1 2 4
M  V30 5 1 2 12
M  V30 6 3 3 5
M  V30 7 1 3 11
M  V30 8 2 4 5
M  V30 9 1 4 8
M  V30 10 2 5 6
M  V30 11 1 6 9
M  V30 12 1 6 13
M  V30 13 1 7 8
M  V30 14 1 7 9
M  V30 15 1 7 14
M  V30 16 1 9 15
M  V30 END BOND
M  V30 END CTAB
M  END
>  <ID>
347
$$$$
Structure_348
Score 	 10.0, smilesprid 	smiles	 smilestrue 	smiles	 similartanimoto 	0	 similardice 	0

   15   16  0  0  0  0            999 V3000
M  V30 BEGIN CTAB
M  V30 COUNTS 15 16 0 0 0
M  V30 BEGIN ATOM
M  V30 1 C -2.5391 -0.1953 0.0000 0
M  V30 2 C -1.7578 -1.3672 0.0000 0
M  V30 3 C -1.7578 0.9766 0.0000 0
M  V30 4 C -0.3906 -0.7812 0.0000 0
M  V30 5 C -0.3906 0.5859 0.0000 0
M  V30 6 C 0.7812 1.1719 0.0000 0
M  V30 7 C 1.9531 -0.7812 0.0000 0
M  V30 8 N 0.7812 -1.5625 0.0000 0
M  V30 9 N 1.9531 0.3906 0.0000 0
M  V30 10 H -3.5156 -0.1953 0.0000 0
M  V30 11 H -2.1484 2.1484 0.0000 0
M  V30 12 H -1.9531 -2.3438 0.0000 0
M  V30 13 H 0.9766 2.3438 0.0000 0
M  V30 14 H 2.9297 -1.3672 0.0000 0
M  V30 15 H 2.7344 0.9766 0.0000 0
M  V30 END ATOM
M  V30 BEGIN BOND
M  V30 1 3 1 2
M  V30 2 2 1 3
M  V30 3 1 1 10
M  V30 4 1 2 4
M  V30 5 1 2 12
M  V30 6 3 3 5
M  V30 7 1 3 11
M  V30 8 2 4 5
M  V30 9 1 4 8
M  V30 10 2 5 6
M  V30 11 1 6 9
M  V30 12 1 6 13
M  V30 13 1 7 8
M  V30 14 1 7 9
M  V30 15 1 7 14
M  V30 16 1 9 15
M  V30 END BOND
M  V30 END CTAB
M  END
>  <ID>
348
$$$$
Structure_349
Score 	 10.0, smilesprid 	smiles	 smilestrue 	smiles	 similartanimoto 	0	 similardice 	0

   15   16  0  0  0  0            999 V3000
M  V30 BEGIN CTAB
M  V30 COUNTS 15 16 0 0 0
M  V30 BEGIN ATOM
M  V30 1 C -2.5391 -0.1953 0.0000 0
M  V30 2 C -1.7578 -1.3672 0.0000 0
M  V30 3 C -1.7578 0.9766 0.0000 0
M  V30 4 C -0.3906 -0.7812 0.0000 0
M  V30 5 C -0.3906 0.5859 0.0000 0
M  V30 6 C 0.7812 1.1719 0.0000 0
M  V30 7 C 1.9531 -0.7812 0.0000 0
M  V30 8 N 0.7812 -1.5625 0.0000 0
M  V30 9 N 1.9531 0.3906 0.0000 0
M  V30 10 H -3.5156 -0.1953 0.0000 0
M  V30 11 H -2.1484 2.1484 0.0000 0
M  V30 12 H -1.9531 -2.3438 0.0000 0
M  V30 13 H 0.9766 2.3438 0.0000 0
M  V30 14 H 2.9297 -1.3672 0.0000 0
M  V30 15 H 2.7344 0.9766 0.0000 0
M  V30 END ATOM
M  V30 BEGIN BOND
M  V30 1 1 1 2
M  V30 2 3 1 3
M  V30 3 1 1 10
M  V30 4 1 2 4
M  V30 5 1 2 12
M  V30 6 3 3 5
M  V30 7 1 3 11
M  V30 8 2 4 5
M  V30 9 1 4 8
M  V30 10 2 5 6
M  V30 11 1 6 9
M  V30 12 1 6 13
M  V30 13 1 7 8
M  V30 14 1 7 9
M  V30 15 1 7 14
M  V30 16 1 9 15
M  V30 END BOND
M  V30 END CTAB
M  END
>  <ID>
349
$$$$
Structure_350
Score 	 10.0, smilesprid 	smiles	 smilestrue 	smiles	 similartanimoto 	0	 similardice 	0

   15   16  0  0  0  0            999 V3000
M  V30 BEGIN CTAB
M  V30 COUNTS 15 16 0 0 0
M  V30 BEGIN ATOM
M  V30 1 C -2.5391 -0.1953 0.0000 0
M  V30 2 C -1.7578 -1.3672 0.0000 0
M  V30 3 C -1.7578 0.9766 0.0000 0
M  V30 4 C -0.3906 -0.7812 0.0000 0
M  V30 5 C -0.3906 0.5859 0.0000 0
M  V30 6 C 0.7812 1.1719 0.0000 0
M  V30 7 C 1.9531 -0.7812 0.0000 0
M  V30 8 N 0.7812 -1.5625 0.0000 0
M  V30 9 N 1.9531 0.3906 0.0000 0
M  V30 10 H -3.5156 -0.1953 0.0000 0
M  V30 11 H -2.1484 2.1484 0.0000 0
M  V30 12 H -1.9531 -2.3438 0.0000 0
M  V30 13 H 0.9766 2.3438 0.0000 0
M  V30 14 H 2.9297 -1.3672 0.0000 0
M  V30 15 H 2.7344 0.9766 0.0000 0
M  V30 END ATOM
M  V30 BEGIN BOND
M  V30 1 2 1 2
M  V30 2 3 1 3
M  V30 3 1 1 10
M  V30 4 1 2 4
M  V30 5 1 2 12
M  V30 6 3 3 5
M  V30 7 1 3 11
M  V30 8 2 4 5
M  V30 9 1 4 8
M  V30 10 2 5 6
M  V30 11 1 6 9
M  V30 12 1 6 13
M  V30 13 1 7 8
M  V30 14 1 7 9
M  V30 15 1 7 14
M  V30 16 1 9 15
M  V30 END BOND
M  V30 END CTAB
M  END
>  <ID>
350
$$$$
Structure_351
Score 	 12.0, smilesprid 	smiles	 smilestrue 	smiles	 similartanimoto 	0	 similardice 	0

   15   16  0  0  0  0            999 V3000
M  V30 BEGIN CTAB
M  V30 COUNTS 15 16 0 0 0
M  V30 BEGIN ATOM
M  V30 1 C -2.5391 -0.1953 0.0000 0
M  V30 2 C -1.7578 -1.3672 0.0000 0
M  V30 3 C -1.7578 0.9766 0.0000 0
M  V30 4 C -0.3906 -0.7812 0.0000 0
M  V30 5 C -0.3906 0.5859 0.0000 0
M  V30 6 C 0.7812 1.1719 0.0000 0
M  V30 7 C 1.9531 -0.7812 0.0000 0
M  V30 8 N 0.7812 -1.5625 0.0000 0
M  V30 9 N 1.9531 0.3906 0.0000 0
M  V30 10 H -3.5156 -0.1953 0.0000 0
M  V30 11 H -2.1484 2.1484 0.0000 0
M  V30 12 H -1.9531 -2.3438 0.0000 0
M  V30 13 H 0.9766 2.3438 0.0000 0
M  V30 14 H 2.9297 -1.3672 0.0000 0
M  V30 15 H 2.7344 0.9766 0.0000 0
M  V30 END ATOM
M  V30 BEGIN BOND
M  V30 1 3 1 2
M  V30 2 3 1 3
M  V30 3 1 1 10
M  V30 4 1 2 4
M  V30 5 1 2 12
M  V30 6 3 3 5
M  V30 7 1 3 11
M  V30 8 2 4 5
M  V30 9 1 4 8
M  V30 10 2 5 6
M  V30 11 1 6 9
M  V30 12 1 6 13
M  V30 13 1 7 8
M  V30 14 1 7 9
M  V30 15 1 7 14
M  V30 16 1 9 15
M  V30 END BOND
M  V30 END CTAB
M  END
>  <ID>
351
$$$$
Structure_352
Score 	 6.0, smilesprid 	smiles	 smilestrue 	smiles	 similartanimoto 	0	 similardice 	0

   15   16  0  0  0  0            999 V3000
M  V30 BEGIN CTAB
M  V30 COUNTS 15 16 0 0 0
M  V30 BEGIN ATOM
M  V30 1 C -2.5391 -0.1953 0.0000 0
M  V30 2 C -1.7578 -1.3672 0.0000 0
M  V30 3 C -1.7578 0.9766 0.0000 0
M  V30 4 C -0.3906 -0.7812 0.0000 0
M  V30 5 C -0.3906 0.5859 0.0000 0
M  V30 6 C 0.7812 1.1719 0.0000 0
M  V30 7 C 1.9531 -0.7812 0.0000 0
M  V30 8 N 0.7812 -1.5625 0.0000 0
M  V30 9 N 1.9531 0.3906 0.0000 0
M  V30 10 H -3.5156 -0.1953 0.0000 0
M  V30 11 H -2.1484 2.1484 0.0000 0
M  V30 12 H -1.9531 -2.3438 0.0000 0
M  V30 13 H 0.9766 2.3438 0.0000 0
M  V30 14 H 2.9297 -1.3672 0.0000 0
M  V30 15 H 2.7344 0.9766 0.0000 0
M  V30 END ATOM
M  V30 BEGIN BOND
M  V30 1 1 1 2
M  V30 2 1 1 3
M  V30 3 1 1 10
M  V30 4 2 2 4
M  V30 5 1 2 12
M  V30 6 1 3 5
M  V30 7 1 3 11
M  V30 8 2 4 5
M  V30 9 1 4 8
M  V30 10 2 5 6
M  V30 11 1 6 9
M  V30 12 1 6 13
M  V30 13 1 7 8
M  V30 14 1 7 9
M  V30 15 1 7 14
M  V30 16 1 9 15
M  V30 END BOND
M  V30 END CTAB
M  END
>  <ID>
352
$$$$
Structure_353
Score 	 6.0, smilesprid 	smiles	 smilestrue 	smiles	 similartanimoto 	0	 similardice 	0

   15   16  0  0  0  0            999 V3000
M  V30 BEGIN CTAB
M  V30 COUNTS 15 16 0 0 0
M  V30 BEGIN ATOM
M  V30 1 C -2.5391 -0.1953 0.0000 0
M  V30 2 C -1.7578 -1.3672 0.0000 0
M  V30 3 C -1.7578 0.9766 0.0000 0
M  V30 4 C -0.3906 -0.7812 0.0000 0
M  V30 5 C -0.3906 0.5859 0.0000 0
M  V30 6 C 0.7812 1.1719 0.0000 0
M  V30 7 C 1.9531 -0.7812 0.0000 0
M  V30 8 N 0.7812 -1.5625 0.0000 0
M  V30 9 N 1.9531 0.3906 0.0000 0
M  V30 10 H -3.5156 -0.1953 0.0000 0
M  V30 11 H -2.1484 2.1484 0.0000 0
M  V30 12 H -1.9531 -2.3438 0.0000 0
M  V30 13 H 0.9766 2.3438 0.0000 0
M  V30 14 H 2.9297 -1.3672 0.0000 0
M  V30 15 H 2.7344 0.9766 0.0000 0
M  V30 END ATOM
M  V30 BEGIN BOND
M  V30 1 2 1 2
M  V30 2 1 1 3
M  V30 3 1 1 10
M  V30 4 2 2 4
M  V30 5 1 2 12
M  V30 6 1 3 5
M  V30 7 1 3 11
M  V30 8 2 4 5
M  V30 9 1 4 8
M  V30 10 2 5 6
M  V30 11 1 6 9
M  V30 12 1 6 13
M  V30 13 1 7 8
M  V30 14 1 7 9
M  V30 15 1 7 14
M  V30 16 1 9 15
M  V30 END BOND
M  V30 END CTAB
M  END
>  <ID>
353
$$$$
Structure_354
Score 	 8.0, smilesprid 	smiles	 smilestrue 	smiles	 similartanimoto 	0	 similardice 	0

   15   16  0  0  0  0            999 V3000
M  V30 BEGIN CTAB
M  V30 COUNTS 15 16 0 0 0
M  V30 BEGIN ATOM
M  V30 1 C -2.5391 -0.1953 0.0000 0
M  V30 2 C -1.7578 -1.3672 0.0000 0
M  V30 3 C -1.7578 0.9766 0.0000 0
M  V30 4 C -0.3906 -0.7812 0.0000 0
M  V30 5 C -0.3906 0.5859 0.0000 0
M  V30 6 C 0.7812 1.1719 0.0000 0
M  V30 7 C 1.9531 -0.7812 0.0000 0
M  V30 8 N 0.7812 -1.5625 0.0000 0
M  V30 9 N 1.9531 0.3906 0.0000 0
M  V30 10 H -3.5156 -0.1953 0.0000 0
M  V30 11 H -2.1484 2.1484 0.0000 0
M  V30 12 H -1.9531 -2.3438 0.0000 0
M  V30 13 H 0.9766 2.3438 0.0000 0
M  V30 14 H 2.9297 -1.3672 0.0000 0
M  V30 15 H 2.7344 0.9766 0.0000 0
M  V30 END ATOM
M  V30 BEGIN BOND
M  V30 1 3 1 2
M  V30 2 1 1 3
M  V30 3 1 1 10
M  V30 4 2 2 4
M  V30 5 1 2 12
M  V30 6 1 3 5
M  V30 7 1 3 11
M  V30 8 2 4 5
M  V30 9 1 4 8
M  V30 10 2 5 6
M  V30 11 1 6 9
M  V30 12 1 6 13
M  V30 13 1 7 8
M  V30 14 1 7 9
M  V30 15 1 7 14
M  V30 16 1 9 15
M  V30 END BOND
M  V30 END CTAB
M  END
>  <ID>
354
$$$$
Structure_355
Score 	 4.0, smilesprid 	smiles	 smilestrue 	smiles	 similartanimoto 	0	 similardice 	0

   15   16  0  0  0  0            999 V3000
M  V30 BEGIN CTAB
M  V30 COUNTS 15 16 0 0 0
M  V30 BEGIN ATOM
M  V30 1 C -2.5391 -0.1953 0.0000 0
M  V30 2 C -1.7578 -1.3672 0.0000 0
M  V30 3 C -1.7578 0.9766 0.0000 0
M  V30 4 C -0.3906 -0.7812 0.0000 0
M  V30 5 C -0.3906 0.5859 0.0000 0
M  V30 6 C 0.7812 1.1719 0.0000 0
M  V30 7 C 1.9531 -0.7812 0.0000 0
M  V30 8 N 0.7812 -1.5625 0.0000 0
M  V30 9 N 1.9531 0.3906 0.0000 0
M  V30 10 H -3.5156 -0.1953 0.0000 0
M  V30 11 H -2.1484 2.1484 0.0000 0
M  V30 12 H -1.9531 -2.3438 0.0000 0
M  V30 13 H 0.9766 2.3438 0.0000 0
M  V30 14 H 2.9297 -1.3672 0.0000 0
M  V30 15 H 2.7344 0.9766 0.0000 0
M  V30 END ATOM
M  V30 BEGIN BOND
M  V30 1 1 1 2
M  V30 2 2 1 3
M  V30 3 1 1 10
M  V30 4 2 2 4
M  V30 5 1 2 12
M  V30 6 1 3 5
M  V30 7 1 3 11
M  V30 8 2 4 5
M  V30 9 1 4 8
M  V30 10 2 5 6
M  V30 11 1 6 9
M  V30 12 1 6 13
M  V30 13 1 7 8
M  V30 14 1 7 9
M  V30 15 1 7 14
M  V30 16 1 9 15
M  V30 END BOND
M  V30 END CTAB
M  END
>  <ID>
355
$$$$
Structure_356
Score 	 6.0, smilesprid 	smiles	 smilestrue 	smiles	 similartanimoto 	0	 similardice 	0

   15   16  0  0  0  0            999 V3000
M  V30 BEGIN CTAB
M  V30 COUNTS 15 16 0 0 0
M  V30 BEGIN ATOM
M  V30 1 C -2.5391 -0.1953 0.0000 0
M  V30 2 C -1.7578 -1.3672 0.0000 0
M  V30 3 C -1.7578 0.9766 0.0000 0
M  V30 4 C -0.3906 -0.7812 0.0000 0
M  V30 5 C -0.3906 0.5859 0.0000 0
M  V30 6 C 0.7812 1.1719 0.0000 0
M  V30 7 C 1.9531 -0.7812 0.0000 0
M  V30 8 N 0.7812 -1.5625 0.0000 0
M  V30 9 N 1.9531 0.3906 0.0000 0
M  V30 10 H -3.5156 -0.1953 0.0000 0
M  V30 11 H -2.1484 2.1484 0.0000 0
M  V30 12 H -1.9531 -2.3438 0.0000 0
M  V30 13 H 0.9766 2.3438 0.0000 0
M  V30 14 H 2.9297 -1.3672 0.0000 0
M  V30 15 H 2.7344 0.9766 0.0000 0
M  V30 END ATOM
M  V30 BEGIN BOND
M  V30 1 2 1 2
M  V30 2 2 1 3
M  V30 3 1 1 10
M  V30 4 2 2 4
M  V30 5 1 2 12
M  V30 6 1 3 5
M  V30 7 1 3 11
M  V30 8 2 4 5
M  V30 9 1 4 8
M  V30 10 2 5 6
M  V30 11 1 6 9
M  V30 12 1 6 13
M  V30 13 1 7 8
M  V30 14 1 7 9
M  V30 15 1 7 14
M  V30 16 1 9 15
M  V30 END BOND
M  V30 END CTAB
M  END
>  <ID>
356
$$$$
Structure_357
Score 	 8.0, smilesprid 	smiles	 smilestrue 	smiles	 similartanimoto 	0	 similardice 	0

   15   16  0  0  0  0            999 V3000
M  V30 BEGIN CTAB
M  V30 COUNTS 15 16 0 0 0
M  V30 BEGIN ATOM
M  V30 1 C -2.5391 -0.1953 0.0000 0
M  V30 2 C -1.7578 -1.3672 0.0000 0
M  V30 3 C -1.7578 0.9766 0.0000 0
M  V30 4 C -0.3906 -0.7812 0.0000 0
M  V30 5 C -0.3906 0.5859 0.0000 0
M  V30 6 C 0.7812 1.1719 0.0000 0
M  V30 7 C 1.9531 -0.7812 0.0000 0
M  V30 8 N 0.7812 -1.5625 0.0000 0
M  V30 9 N 1.9531 0.3906 0.0000 0
M  V30 10 H -3.5156 -0.1953 0.0000 0
M  V30 11 H -2.1484 2.1484 0.0000 0
M  V30 12 H -1.9531 -2.3438 0.0000 0
M  V30 13 H 0.9766 2.3438 0.0000 0
M  V30 14 H 2.9297 -1.3672 0.0000 0
M  V30 15 H 2.7344 0.9766 0.0000 0
M  V30 END ATOM
M  V30 BEGIN BOND
M  V30 1 3 1 2
M  V30 2 2 1 3
M  V30 3 1 1 10
M  V30 4 2 2 4
M  V30 5 1 2 12
M  V30 6 1 3 5
M  V30 7 1 3 11
M  V30 8 2 4 5
M  V30 9 1 4 8
M  V30 10 2 5 6
M  V30 11 1 6 9
M  V30 12 1 6 13
M  V30 13 1 7 8
M  V30 14 1 7 9
M  V30 15 1 7 14
M  V30 16 1 9 15
M  V30 END BOND
M  V30 END CTAB
M  END
>  <ID>
357
$$$$
Structure_358
Score 	 6.0, smilesprid 	smiles	 smilestrue 	smiles	 similartanimoto 	0	 similardice 	0

   15   16  0  0  0  0            999 V3000
M  V30 BEGIN CTAB
M  V30 COUNTS 15 16 0 0 0
M  V30 BEGIN ATOM
M  V30 1 C -2.5391 -0.1953 0.0000 0
M  V30 2 C -1.7578 -1.3672 0.0000 0
M  V30 3 C -1.7578 0.9766 0.0000 0
M  V30 4 C -0.3906 -0.7812 0.0000 0
M  V30 5 C -0.3906 0.5859 0.0000 0
M  V30 6 C 0.7812 1.1719 0.0000 0
M  V30 7 C 1.9531 -0.7812 0.0000 0
M  V30 8 N 0.7812 -1.5625 0.0000 0
M  V30 9 N 1.9531 0.3906 0.0000 0
M  V30 10 H -3.5156 -0.1953 0.0000 0
M  V30 11 H -2.1484 2.1484 0.0000 0
M  V30 12 H -1.9531 -2.3438 0.0000 0
M  V30 13 H 0.9766 2.3438 0.0000 0
M  V30 14 H 2.9297 -1.3672 0.0000 0
M  V30 15 H 2.7344 0.9766 0.0000 0
M  V30 END ATOM
M  V30 BEGIN BOND
M  V30 1 1 1 2
M  V30 2 3 1 3
M  V30 3 1 1 10
M  V30 4 2 2 4
M  V30 5 1 2 12
M  V30 6 1 3 5
M  V30 7 1 3 11
M  V30 8 2 4 5
M  V30 9 1 4 8
M  V30 10 2 5 6
M  V30 11 1 6 9
M  V30 12 1 6 13
M  V30 13 1 7 8
M  V30 14 1 7 9
M  V30 15 1 7 14
M  V30 16 1 9 15
M  V30 END BOND
M  V30 END CTAB
M  END
>  <ID>
358
$$$$
Structure_359
Score 	 8.0, smilesprid 	smiles	 smilestrue 	smiles	 similartanimoto 	0	 similardice 	0

   15   16  0  0  0  0            999 V3000
M  V30 BEGIN CTAB
M  V30 COUNTS 15 16 0 0 0
M  V30 BEGIN ATOM
M  V30 1 C -2.5391 -0.1953 0.0000 0
M  V30 2 C -1.7578 -1.3672 0.0000 0
M  V30 3 C -1.7578 0.9766 0.0000 0
M  V30 4 C -0.3906 -0.7812 0.0000 0
M  V30 5 C -0.3906 0.5859 0.0000 0
M  V30 6 C 0.7812 1.1719 0.0000 0
M  V30 7 C 1.9531 -0.7812 0.0000 0
M  V30 8 N 0.7812 -1.5625 0.0000 0
M  V30 9 N 1.9531 0.3906 0.0000 0
M  V30 10 H -3.5156 -0.1953 0.0000 0
M  V30 11 H -2.1484 2.1484 0.0000 0
M  V30 12 H -1.9531 -2.3438 0.0000 0
M  V30 13 H 0.9766 2.3438 0.0000 0
M  V30 14 H 2.9297 -1.3672 0.0000 0
M  V30 15 H 2.7344 0.9766 0.0000 0
M  V30 END ATOM
M  V30 BEGIN BOND
M  V30 1 2 1 2
M  V30 2 3 1 3
M  V30 3 1 1 10
M  V30 4 2 2 4
M  V30 5 1 2 12
M  V30 6 1 3 5
M  V30 7 1 3 11
M  V30 8 2 4 5
M  V30 9 1 4 8
M  V30 10 2 5 6
M  V30 11 1 6 9
M  V30 12 1 6 13
M  V30 13 1 7 8
M  V30 14 1 7 9
M  V30 15 1 7 14
M  V30 16 1 9 15
M  V30 END BOND
M  V30 END CTAB
M  END
>  <ID>
359
$$$$
Structure_360
Score 	 10.0, smilesprid 	smiles	 smilestrue 	smiles	 similartanimoto 	0	 similardice 	0

   15   16  0  0  0  0            999 V3000
M  V30 BEGIN CTAB
M  V30 COUNTS 15 16 0 0 0
M  V30 BEGIN ATOM
M  V30 1 C -2.5391 -0.1953 0.0000 0
M  V30 2 C -1.7578 -1.3672 0.0000 0
M  V30 3 C -1.7578 0.9766 0.0000 0
M  V30 4 C -0.3906 -0.7812 0.0000 0
M  V30 5 C -0.3906 0.5859 0.0000 0
M  V30 6 C 0.7812 1.1719 0.0000 0
M  V30 7 C 1.9531 -0.7812 0.0000 0
M  V30 8 N 0.7812 -1.5625 0.0000 0
M  V30 9 N 1.9531 0.3906 0.0000 0
M  V30 10 H -3.5156 -0.1953 0.0000 0
M  V30 11 H -2.1484 2.1484 0.0000 0
M  V30 12 H -1.9531 -2.3438 0.0000 0
M  V30 13 H 0.9766 2.3438 0.0000 0
M  V30 14 H 2.9297 -1.3672 0.0000 0
M  V30 15 H 2.7344 0.9766 0.0000 0
M  V30 END ATOM
M  V30 BEGIN BOND
M  V30 1 3 1 2
M  V30 2 3 1 3
M  V30 3 1 1 10
M  V30 4 2 2 4
M  V30 5 1 2 12
M  V30 6 1 3 5
M  V30 7 1 3 11
M  V30 8 2 4 5
M  V30 9 1 4 8
M  V30 10 2 5 6
M  V30 11 1 6 9
M  V30 12 1 6 13
M  V30 13 1 7 8
M  V30 14 1 7 9
M  V30 15 1 7 14
M  V30 16 1 9 15
M  V30 END BOND
M  V30 END CTAB
M  END
>  <ID>
360
$$$$
Structure_361
Score 	 6.0, smilesprid 	smiles	 smilestrue 	smiles	 similartanimoto 	0	 similardice 	0

   15   16  0  0  0  0            999 V3000
M  V30 BEGIN CTAB
M  V30 COUNTS 15 16 0 0 0
M  V30 BEGIN ATOM
M  V30 1 C -2.5391 -0.1953 0.0000 0
M  V30 2 C -1.7578 -1.3672 0.0000 0
M  V30 3 C -1.7578 0.9766 0.0000 0
M  V30 4 C -0.3906 -0.7812 0.0000 0
M  V30 5 C -0.3906 0.5859 0.0000 0
M  V30 6 C 0.7812 1.1719 0.0000 0
M  V30 7 C 1.9531 -0.7812 0.0000 0
M  V30 8 N 0.7812 -1.5625 0.0000 0
M  V30 9 N 1.9531 0.3906 0.0000 0
M  V30 10 H -3.5156 -0.1953 0.0000 0
M  V30 11 H -2.1484 2.1484 0.0000 0
M  V30 12 H -1.9531 -2.3438 0.0000 0
M  V30 13 H 0.9766 2.3438 0.0000 0
M  V30 14 H 2.9297 -1.3672 0.0000 0
M  V30 15 H 2.7344 0.9766 0.0000 0
M  V30 END ATOM
M  V30 BEGIN BOND
M  V30 1 1 1 2
M  V30 2 1 1 3
M  V30 3 1 1 10
M  V30 4 2 2 4
M  V30 5 1 2 12
M  V30 6 2 3 5
M  V30 7 1 3 11
M  V30 8 2 4 5
M  V30 9 1 4 8
M  V30 10 2 5 6
M  V30 11 1 6 9
M  V30 12 1 6 13
M  V30 13 1 7 8
M  V30 14 1 7 9
M  V30 15 1 7 14
M  V30 16 1 9 15
M  V30 END BOND
M  V30 END CTAB
M  END
>  <ID>
361
$$$$
Structure_362
Score 	 6.0, smilesprid 	smiles	 smilestrue 	smiles	 similartanimoto 	0	 similardice 	0

   15   16  0  0  0  0            999 V3000
M  V30 BEGIN CTAB
M  V30 COUNTS 15 16 0 0 0
M  V30 BEGIN ATOM
M  V30 1 C -2.5391 -0.1953 0.0000 0
M  V30 2 C -1.7578 -1.3672 0.0000 0
M  V30 3 C -1.7578 0.9766 0.0000 0
M  V30 4 C -0.3906 -0.7812 0.0000 0
M  V30 5 C -0.3906 0.5859 0.0000 0
M  V30 6 C 0.7812 1.1719 0.0000 0
M  V30 7 C 1.9531 -0.7812 0.0000 0
M  V30 8 N 0.7812 -1.5625 0.0000 0
M  V30 9 N 1.9531 0.3906 0.0000 0
M  V30 10 H -3.5156 -0.1953 0.0000 0
M  V30 11 H -2.1484 2.1484 0.0000 0
M  V30 12 H -1.9531 -2.3438 0.0000 0
M  V30 13 H 0.9766 2.3438 0.0000 0
M  V30 14 H 2.9297 -1.3672 0.0000 0
M  V30 15 H 2.7344 0.9766 0.0000 0
M  V30 END ATOM
M  V30 BEGIN BOND
M  V30 1 2 1 2
M  V30 2 1 1 3
M  V30 3 1 1 10
M  V30 4 2 2 4
M  V30 5 1 2 12
M  V30 6 2 3 5
M  V30 7 1 3 11
M  V30 8 2 4 5
M  V30 9 1 4 8
M  V30 10 2 5 6
M  V30 11 1 6 9
M  V30 12 1 6 13
M  V30 13 1 7 8
M  V30 14 1 7 9
M  V30 15 1 7 14
M  V30 16 1 9 15
M  V30 END BOND
M  V30 END CTAB
M  END
>  <ID>
362
$$$$
Structure_363
Score 	 8.0, smilesprid 	smiles	 smilestrue 	smiles	 similartanimoto 	0	 similardice 	0

   15   16  0  0  0  0            999 V3000
M  V30 BEGIN CTAB
M  V30 COUNTS 15 16 0 0 0
M  V30 BEGIN ATOM
M  V30 1 C -2.5391 -0.1953 0.0000 0
M  V30 2 C -1.7578 -1.3672 0.0000 0
M  V30 3 C -1.7578 0.9766 0.0000 0
M  V30 4 C -0.3906 -0.7812 0.0000 0
M  V30 5 C -0.3906 0.5859 0.0000 0
M  V30 6 C 0.7812 1.1719 0.0000 0
M  V30 7 C 1.9531 -0.7812 0.0000 0
M  V30 8 N 0.7812 -1.5625 0.0000 0
M  V30 9 N 1.9531 0.3906 0.0000 0
M  V30 10 H -3.5156 -0.1953 0.0000 0
M  V30 11 H -2.1484 2.1484 0.0000 0
M  V30 12 H -1.9531 -2.3438 0.0000 0
M  V30 13 H 0.9766 2.3438 0.0000 0
M  V30 14 H 2.9297 -1.3672 0.0000 0
M  V30 15 H 2.7344 0.9766 0.0000 0
M  V30 END ATOM
M  V30 BEGIN BOND
M  V30 1 3 1 2
M  V30 2 1 1 3
M  V30 3 1 1 10
M  V30 4 2 2 4
M  V30 5 1 2 12
M  V30 6 2 3 5
M  V30 7 1 3 11
M  V30 8 2 4 5
M  V30 9 1 4 8
M  V30 10 2 5 6
M  V30 11 1 6 9
M  V30 12 1 6 13
M  V30 13 1 7 8
M  V30 14 1 7 9
M  V30 15 1 7 14
M  V30 16 1 9 15
M  V30 END BOND
M  V30 END CTAB
M  END
>  <ID>
363
$$$$
Structure_364
Score 	 6.0, smilesprid 	smiles	 smilestrue 	smiles	 similartanimoto 	0	 similardice 	0

   15   16  0  0  0  0            999 V3000
M  V30 BEGIN CTAB
M  V30 COUNTS 15 16 0 0 0
M  V30 BEGIN ATOM
M  V30 1 C -2.5391 -0.1953 0.0000 0
M  V30 2 C -1.7578 -1.3672 0.0000 0
M  V30 3 C -1.7578 0.9766 0.0000 0
M  V30 4 C -0.3906 -0.7812 0.0000 0
M  V30 5 C -0.3906 0.5859 0.0000 0
M  V30 6 C 0.7812 1.1719 0.0000 0
M  V30 7 C 1.9531 -0.7812 0.0000 0
M  V30 8 N 0.7812 -1.5625 0.0000 0
M  V30 9 N 1.9531 0.3906 0.0000 0
M  V30 10 H -3.5156 -0.1953 0.0000 0
M  V30 11 H -2.1484 2.1484 0.0000 0
M  V30 12 H -1.9531 -2.3438 0.0000 0
M  V30 13 H 0.9766 2.3438 0.0000 0
M  V30 14 H 2.9297 -1.3672 0.0000 0
M  V30 15 H 2.7344 0.9766 0.0000 0
M  V30 END ATOM
M  V30 BEGIN BOND
M  V30 1 1 1 2
M  V30 2 2 1 3
M  V30 3 1 1 10
M  V30 4 2 2 4
M  V30 5 1 2 12
M  V30 6 2 3 5
M  V30 7 1 3 11
M  V30 8 2 4 5
M  V30 9 1 4 8
M  V30 10 2 5 6
M  V30 11 1 6 9
M  V30 12 1 6 13
M  V30 13 1 7 8
M  V30 14 1 7 9
M  V30 15 1 7 14
M  V30 16 1 9 15
M  V30 END BOND
M  V30 END CTAB
M  END
>  <ID>
364
$$$$
Structure_365
Score 	 8.0, smilesprid 	smiles	 smilestrue 	smiles	 similartanimoto 	0	 similardice 	0

   15   16  0  0  0  0            999 V3000
M  V30 BEGIN CTAB
M  V30 COUNTS 15 16 0 0 0
M  V30 BEGIN ATOM
M  V30 1 C -2.5391 -0.1953 0.0000 0
M  V30 2 C -1.7578 -1.3672 0.0000 0
M  V30 3 C -1.7578 0.9766 0.0000 0
M  V30 4 C -0.3906 -0.7812 0.0000 0
M  V30 5 C -0.3906 0.5859 0.0000 0
M  V30 6 C 0.7812 1.1719 0.0000 0
M  V30 7 C 1.9531 -0.7812 0.0000 0
M  V30 8 N 0.7812 -1.5625 0.0000 0
M  V30 9 N 1.9531 0.3906 0.0000 0
M  V30 10 H -3.5156 -0.1953 0.0000 0
M  V30 11 H -2.1484 2.1484 0.0000 0
M  V30 12 H -1.9531 -2.3438 0.0000 0
M  V30 13 H 0.9766 2.3438 0.0000 0
M  V30 14 H 2.9297 -1.3672 0.0000 0
M  V30 15 H 2.7344 0.9766 0.0000 0
M  V30 END ATOM
M  V30 BEGIN BOND
M  V30 1 2 1 2
M  V30 2 2 1 3
M  V30 3 1 1 10
M  V30 4 2 2 4
M  V30 5 1 2 12
M  V30 6 2 3 5
M  V30 7 1 3 11
M  V30 8 2 4 5
M  V30 9 1 4 8
M  V30 10 2 5 6
M  V30 11 1 6 9
M  V30 12 1 6 13
M  V30 13 1 7 8
M  V30 14 1 7 9
M  V30 15 1 7 14
M  V30 16 1 9 15
M  V30 END BOND
M  V30 END CTAB
M  END
>  <ID>
365
$$$$
Structure_366
Score 	 10.0, smilesprid 	smiles	 smilestrue 	smiles	 similartanimoto 	0	 similardice 	0

   15   16  0  0  0  0            999 V3000
M  V30 BEGIN CTAB
M  V30 COUNTS 15 16 0 0 0
M  V30 BEGIN ATOM
M  V30 1 C -2.5391 -0.1953 0.0000 0
M  V30 2 C -1.7578 -1.3672 0.0000 0
M  V30 3 C -1.7578 0.9766 0.0000 0
M  V30 4 C -0.3906 -0.7812 0.0000 0
M  V30 5 C -0.3906 0.5859 0.0000 0
M  V30 6 C 0.7812 1.1719 0.0000 0
M  V30 7 C 1.9531 -0.7812 0.0000 0
M  V30 8 N 0.7812 -1.5625 0.0000 0
M  V30 9 N 1.9531 0.3906 0.0000 0
M  V30 10 H -3.5156 -0.1953 0.0000 0
M  V30 11 H -2.1484 2.1484 0.0000 0
M  V30 12 H -1.9531 -2.3438 0.0000 0
M  V30 13 H 0.9766 2.3438 0.0000 0
M  V30 14 H 2.9297 -1.3672 0.0000 0
M  V30 15 H 2.7344 0.9766 0.0000 0
M  V30 END ATOM
M  V30 BEGIN BOND
M  V30 1 3 1 2
M  V30 2 2 1 3
M  V30 3 1 1 10
M  V30 4 2 2 4
M  V30 5 1 2 12
M  V30 6 2 3 5
M  V30 7 1 3 11
M  V30 8 2 4 5
M  V30 9 1 4 8
M  V30 10 2 5 6
M  V30 11 1 6 9
M  V30 12 1 6 13
M  V30 13 1 7 8
M  V30 14 1 7 9
M  V30 15 1 7 14
M  V30 16 1 9 15
M  V30 END BOND
M  V30 END CTAB
M  END
>  <ID>
366
$$$$
Structure_367
Score 	 8.0, smilesprid 	smiles	 smilestrue 	smiles	 similartanimoto 	0	 similardice 	0

   15   16  0  0  0  0            999 V3000
M  V30 BEGIN CTAB
M  V30 COUNTS 15 16 0 0 0
M  V30 BEGIN ATOM
M  V30 1 C -2.5391 -0.1953 0.0000 0
M  V30 2 C -1.7578 -1.3672 0.0000 0
M  V30 3 C -1.7578 0.9766 0.0000 0
M  V30 4 C -0.3906 -0.7812 0.0000 0
M  V30 5 C -0.3906 0.5859 0.0000 0
M  V30 6 C 0.7812 1.1719 0.0000 0
M  V30 7 C 1.9531 -0.7812 0.0000 0
M  V30 8 N 0.7812 -1.5625 0.0000 0
M  V30 9 N 1.9531 0.3906 0.0000 0
M  V30 10 H -3.5156 -0.1953 0.0000 0
M  V30 11 H -2.1484 2.1484 0.0000 0
M  V30 12 H -1.9531 -2.3438 0.0000 0
M  V30 13 H 0.9766 2.3438 0.0000 0
M  V30 14 H 2.9297 -1.3672 0.0000 0
M  V30 15 H 2.7344 0.9766 0.0000 0
M  V30 END ATOM
M  V30 BEGIN BOND
M  V30 1 1 1 2
M  V30 2 3 1 3
M  V30 3 1 1 10
M  V30 4 2 2 4
M  V30 5 1 2 12
M  V30 6 2 3 5
M  V30 7 1 3 11
M  V30 8 2 4 5
M  V30 9 1 4 8
M  V30 10 2 5 6
M  V30 11 1 6 9
M  V30 12 1 6 13
M  V30 13 1 7 8
M  V30 14 1 7 9
M  V30 15 1 7 14
M  V30 16 1 9 15
M  V30 END BOND
M  V30 END CTAB
M  END
>  <ID>
367
$$$$
Structure_368
Score 	 10.0, smilesprid 	smiles	 smilestrue 	smiles	 similartanimoto 	0	 similardice 	0

   15   16  0  0  0  0            999 V3000
M  V30 BEGIN CTAB
M  V30 COUNTS 15 16 0 0 0
M  V30 BEGIN ATOM
M  V30 1 C -2.5391 -0.1953 0.0000 0
M  V30 2 C -1.7578 -1.3672 0.0000 0
M  V30 3 C -1.7578 0.9766 0.0000 0
M  V30 4 C -0.3906 -0.7812 0.0000 0
M  V30 5 C -0.3906 0.5859 0.0000 0
M  V30 6 C 0.7812 1.1719 0.0000 0
M  V30 7 C 1.9531 -0.7812 0.0000 0
M  V30 8 N 0.7812 -1.5625 0.0000 0
M  V30 9 N 1.9531 0.3906 0.0000 0
M  V30 10 H -3.5156 -0.1953 0.0000 0
M  V30 11 H -2.1484 2.1484 0.0000 0
M  V30 12 H -1.9531 -2.3438 0.0000 0
M  V30 13 H 0.9766 2.3438 0.0000 0
M  V30 14 H 2.9297 -1.3672 0.0000 0
M  V30 15 H 2.7344 0.9766 0.0000 0
M  V30 END ATOM
M  V30 BEGIN BOND
M  V30 1 2 1 2
M  V30 2 3 1 3
M  V30 3 1 1 10
M  V30 4 2 2 4
M  V30 5 1 2 12
M  V30 6 2 3 5
M  V30 7 1 3 11
M  V30 8 2 4 5
M  V30 9 1 4 8
M  V30 10 2 5 6
M  V30 11 1 6 9
M  V30 12 1 6 13
M  V30 13 1 7 8
M  V30 14 1 7 9
M  V30 15 1 7 14
M  V30 16 1 9 15
M  V30 END BOND
M  V30 END CTAB
M  END
>  <ID>
368
$$$$
Structure_369
Score 	 12.0, smilesprid 	smiles	 smilestrue 	smiles	 similartanimoto 	0	 similardice 	0

   15   16  0  0  0  0            999 V3000
M  V30 BEGIN CTAB
M  V30 COUNTS 15 16 0 0 0
M  V30 BEGIN ATOM
M  V30 1 C -2.5391 -0.1953 0.0000 0
M  V30 2 C -1.7578 -1.3672 0.0000 0
M  V30 3 C -1.7578 0.9766 0.0000 0
M  V30 4 C -0.3906 -0.7812 0.0000 0
M  V30 5 C -0.3906 0.5859 0.0000 0
M  V30 6 C 0.7812 1.1719 0.0000 0
M  V30 7 C 1.9531 -0.7812 0.0000 0
M  V30 8 N 0.7812 -1.5625 0.0000 0
M  V30 9 N 1.9531 0.3906 0.0000 0
M  V30 10 H -3.5156 -0.1953 0.0000 0
M  V30 11 H -2.1484 2.1484 0.0000 0
M  V30 12 H -1.9531 -2.3438 0.0000 0
M  V30 13 H 0.9766 2.3438 0.0000 0
M  V30 14 H 2.9297 -1.3672 0.0000 0
M  V30 15 H 2.7344 0.9766 0.0000 0
M  V30 END ATOM
M  V30 BEGIN BOND
M  V30 1 3 1 2
M  V30 2 3 1 3
M  V30 3 1 1 10
M  V30 4 2 2 4
M  V30 5 1 2 12
M  V30 6 2 3 5
M  V30 7 1 3 11
M  V30 8 2 4 5
M  V30 9 1 4 8
M  V30 10 2 5 6
M  V30 11 1 6 9
M  V30 12 1 6 13
M  V30 13 1 7 8
M  V30 14 1 7 9
M  V30 15 1 7 14
M  V30 16 1 9 15
M  V30 END BOND
M  V30 END CTAB
M  END
>  <ID>
369
$$$$
Structure_370
Score 	 8.0, smilesprid 	smiles	 smilestrue 	smiles	 similartanimoto 	0	 similardice 	0

   15   16  0  0  0  0            999 V3000
M  V30 BEGIN CTAB
M  V30 COUNTS 15 16 0 0 0
M  V30 BEGIN ATOM
M  V30 1 C -2.5391 -0.1953 0.0000 0
M  V30 2 C -1.7578 -1.3672 0.0000 0
M  V30 3 C -1.7578 0.9766 0.0000 0
M  V30 4 C -0.3906 -0.7812 0.0000 0
M  V30 5 C -0.3906 0.5859 0.0000 0
M  V30 6 C 0.7812 1.1719 0.0000 0
M  V30 7 C 1.9531 -0.7812 0.0000 0
M  V30 8 N 0.7812 -1.5625 0.0000 0
M  V30 9 N 1.9531 0.3906 0.0000 0
M  V30 10 H -3.5156 -0.1953 0.0000 0
M  V30 11 H -2.1484 2.1484 0.0000 0
M  V30 12 H -1.9531 -2.3438 0.0000 0
M  V30 13 H 0.9766 2.3438 0.0000 0
M  V30 14 H 2.9297 -1.3672 0.0000 0
M  V30 15 H 2.7344 0.9766 0.0000 0
M  V30 END ATOM
M  V30 BEGIN BOND
M  V30 1 1 1 2
M  V30 2 1 1 3
M  V30 3 1 1 10
M  V30 4 2 2 4
M  V30 5 1 2 12
M  V30 6 3 3 5
M  V30 7 1 3 11
M  V30 8 2 4 5
M  V30 9 1 4 8
M  V30 10 2 5 6
M  V30 11 1 6 9
M  V30 12 1 6 13
M  V30 13 1 7 8
M  V30 14 1 7 9
M  V30 15 1 7 14
M  V30 16 1 9 15
M  V30 END BOND
M  V30 END CTAB
M  END
>  <ID>
370
$$$$
Structure_371
Score 	 8.0, smilesprid 	smiles	 smilestrue 	smiles	 similartanimoto 	0	 similardice 	0

   15   16  0  0  0  0            999 V3000
M  V30 BEGIN CTAB
M  V30 COUNTS 15 16 0 0 0
M  V30 BEGIN ATOM
M  V30 1 C -2.5391 -0.1953 0.0000 0
M  V30 2 C -1.7578 -1.3672 0.0000 0
M  V30 3 C -1.7578 0.9766 0.0000 0
M  V30 4 C -0.3906 -0.7812 0.0000 0
M  V30 5 C -0.3906 0.5859 0.0000 0
M  V30 6 C 0.7812 1.1719 0.0000 0
M  V30 7 C 1.9531 -0.7812 0.0000 0
M  V30 8 N 0.7812 -1.5625 0.0000 0
M  V30 9 N 1.9531 0.3906 0.0000 0
M  V30 10 H -3.5156 -0.1953 0.0000 0
M  V30 11 H -2.1484 2.1484 0.0000 0
M  V30 12 H -1.9531 -2.3438 0.0000 0
M  V30 13 H 0.9766 2.3438 0.0000 0
M  V30 14 H 2.9297 -1.3672 0.0000 0
M  V30 15 H 2.7344 0.9766 0.0000 0
M  V30 END ATOM
M  V30 BEGIN BOND
M  V30 1 2 1 2
M  V30 2 1 1 3
M  V30 3 1 1 10
M  V30 4 2 2 4
M  V30 5 1 2 12
M  V30 6 3 3 5
M  V30 7 1 3 11
M  V30 8 2 4 5
M  V30 9 1 4 8
M  V30 10 2 5 6
M  V30 11 1 6 9
M  V30 12 1 6 13
M  V30 13 1 7 8
M  V30 14 1 7 9
M  V30 15 1 7 14
M  V30 16 1 9 15
M  V30 END BOND
M  V30 END CTAB
M  END
>  <ID>
371
$$$$
Structure_372
Score 	 10.0, smilesprid 	smiles	 smilestrue 	smiles	 similartanimoto 	0	 similardice 	0

   15   16  0  0  0  0            999 V3000
M  V30 BEGIN CTAB
M  V30 COUNTS 15 16 0 0 0
M  V30 BEGIN ATOM
M  V30 1 C -2.5391 -0.1953 0.0000 0
M  V30 2 C -1.7578 -1.3672 0.0000 0
M  V30 3 C -1.7578 0.9766 0.0000 0
M  V30 4 C -0.3906 -0.7812 0.0000 0
M  V30 5 C -0.3906 0.5859 0.0000 0
M  V30 6 C 0.7812 1.1719 0.0000 0
M  V30 7 C 1.9531 -0.7812 0.0000 0
M  V30 8 N 0.7812 -1.5625 0.0000 0
M  V30 9 N 1.9531 0.3906 0.0000 0
M  V30 10 H -3.5156 -0.1953 0.0000 0
M  V30 11 H -2.1484 2.1484 0.0000 0
M  V30 12 H -1.9531 -2.3438 0.0000 0
M  V30 13 H 0.9766 2.3438 0.0000 0
M  V30 14 H 2.9297 -1.3672 0.0000 0
M  V30 15 H 2.7344 0.9766 0.0000 0
M  V30 END ATOM
M  V30 BEGIN BOND
M  V30 1 3 1 2
M  V30 2 1 1 3
M  V30 3 1 1 10
M  V30 4 2 2 4
M  V30 5 1 2 12
M  V30 6 3 3 5
M  V30 7 1 3 11
M  V30 8 2 4 5
M  V30 9 1 4 8
M  V30 10 2 5 6
M  V30 11 1 6 9
M  V30 12 1 6 13
M  V30 13 1 7 8
M  V30 14 1 7 9
M  V30 15 1 7 14
M  V30 16 1 9 15
M  V30 END BOND
M  V30 END CTAB
M  END
>  <ID>
372
$$$$
Structure_373
Score 	 8.0, smilesprid 	smiles	 smilestrue 	smiles	 similartanimoto 	0	 similardice 	0

   15   16  0  0  0  0            999 V3000
M  V30 BEGIN CTAB
M  V30 COUNTS 15 16 0 0 0
M  V30 BEGIN ATOM
M  V30 1 C -2.5391 -0.1953 0.0000 0
M  V30 2 C -1.7578 -1.3672 0.0000 0
M  V30 3 C -1.7578 0.9766 0.0000 0
M  V30 4 C -0.3906 -0.7812 0.0000 0
M  V30 5 C -0.3906 0.5859 0.0000 0
M  V30 6 C 0.7812 1.1719 0.0000 0
M  V30 7 C 1.9531 -0.7812 0.0000 0
M  V30 8 N 0.7812 -1.5625 0.0000 0
M  V30 9 N 1.9531 0.3906 0.0000 0
M  V30 10 H -3.5156 -0.1953 0.0000 0
M  V30 11 H -2.1484 2.1484 0.0000 0
M  V30 12 H -1.9531 -2.3438 0.0000 0
M  V30 13 H 0.9766 2.3438 0.0000 0
M  V30 14 H 2.9297 -1.3672 0.0000 0
M  V30 15 H 2.7344 0.9766 0.0000 0
M  V30 END ATOM
M  V30 BEGIN BOND
M  V30 1 1 1 2
M  V30 2 2 1 3
M  V30 3 1 1 10
M  V30 4 2 2 4
M  V30 5 1 2 12
M  V30 6 3 3 5
M  V30 7 1 3 11
M  V30 8 2 4 5
M  V30 9 1 4 8
M  V30 10 2 5 6
M  V30 11 1 6 9
M  V30 12 1 6 13
M  V30 13 1 7 8
M  V30 14 1 7 9
M  V30 15 1 7 14
M  V30 16 1 9 15
M  V30 END BOND
M  V30 END CTAB
M  END
>  <ID>
373
$$$$
Structure_374
Score 	 10.0, smilesprid 	smiles	 smilestrue 	smiles	 similartanimoto 	0	 similardice 	0

   15   16  0  0  0  0            999 V3000
M  V30 BEGIN CTAB
M  V30 COUNTS 15 16 0 0 0
M  V30 BEGIN ATOM
M  V30 1 C -2.5391 -0.1953 0.0000 0
M  V30 2 C -1.7578 -1.3672 0.0000 0
M  V30 3 C -1.7578 0.9766 0.0000 0
M  V30 4 C -0.3906 -0.7812 0.0000 0
M  V30 5 C -0.3906 0.5859 0.0000 0
M  V30 6 C 0.7812 1.1719 0.0000 0
M  V30 7 C 1.9531 -0.7812 0.0000 0
M  V30 8 N 0.7812 -1.5625 0.0000 0
M  V30 9 N 1.9531 0.3906 0.0000 0
M  V30 10 H -3.5156 -0.1953 0.0000 0
M  V30 11 H -2.1484 2.1484 0.0000 0
M  V30 12 H -1.9531 -2.3438 0.0000 0
M  V30 13 H 0.9766 2.3438 0.0000 0
M  V30 14 H 2.9297 -1.3672 0.0000 0
M  V30 15 H 2.7344 0.9766 0.0000 0
M  V30 END ATOM
M  V30 BEGIN BOND
M  V30 1 2 1 2
M  V30 2 2 1 3
M  V30 3 1 1 10
M  V30 4 2 2 4
M  V30 5 1 2 12
M  V30 6 3 3 5
M  V30 7 1 3 11
M  V30 8 2 4 5
M  V30 9 1 4 8
M  V30 10 2 5 6
M  V30 11 1 6 9
M  V30 12 1 6 13
M  V30 13 1 7 8
M  V30 14 1 7 9
M  V30 15 1 7 14
M  V30 16 1 9 15
M  V30 END BOND
M  V30 END CTAB
M  END
>  <ID>
374
$$$$
Structure_375
Score 	 12.0, smilesprid 	smiles	 smilestrue 	smiles	 similartanimoto 	0	 similardice 	0

   15   16  0  0  0  0            999 V3000
M  V30 BEGIN CTAB
M  V30 COUNTS 15 16 0 0 0
M  V30 BEGIN ATOM
M  V30 1 C -2.5391 -0.1953 0.0000 0
M  V30 2 C -1.7578 -1.3672 0.0000 0
M  V30 3 C -1.7578 0.9766 0.0000 0
M  V30 4 C -0.3906 -0.7812 0.0000 0
M  V30 5 C -0.3906 0.5859 0.0000 0
M  V30 6 C 0.7812 1.1719 0.0000 0
M  V30 7 C 1.9531 -0.7812 0.0000 0
M  V30 8 N 0.7812 -1.5625 0.0000 0
M  V30 9 N 1.9531 0.3906 0.0000 0
M  V30 10 H -3.5156 -0.1953 0.0000 0
M  V30 11 H -2.1484 2.1484 0.0000 0
M  V30 12 H -1.9531 -2.3438 0.0000 0
M  V30 13 H 0.9766 2.3438 0.0000 0
M  V30 14 H 2.9297 -1.3672 0.0000 0
M  V30 15 H 2.7344 0.9766 0.0000 0
M  V30 END ATOM
M  V30 BEGIN BOND
M  V30 1 3 1 2
M  V30 2 2 1 3
M  V30 3 1 1 10
M  V30 4 2 2 4
M  V30 5 1 2 12
M  V30 6 3 3 5
M  V30 7 1 3 11
M  V30 8 2 4 5
M  V30 9 1 4 8
M  V30 10 2 5 6
M  V30 11 1 6 9
M  V30 12 1 6 13
M  V30 13 1 7 8
M  V30 14 1 7 9
M  V30 15 1 7 14
M  V30 16 1 9 15
M  V30 END BOND
M  V30 END CTAB
M  END
>  <ID>
375
$$$$
Structure_376
Score 	 10.0, smilesprid 	smiles	 smilestrue 	smiles	 similartanimoto 	0	 similardice 	0

   15   16  0  0  0  0            999 V3000
M  V30 BEGIN CTAB
M  V30 COUNTS 15 16 0 0 0
M  V30 BEGIN ATOM
M  V30 1 C -2.5391 -0.1953 0.0000 0
M  V30 2 C -1.7578 -1.3672 0.0000 0
M  V30 3 C -1.7578 0.9766 0.0000 0
M  V30 4 C -0.3906 -0.7812 0.0000 0
M  V30 5 C -0.3906 0.5859 0.0000 0
M  V30 6 C 0.7812 1.1719 0.0000 0
M  V30 7 C 1.9531 -0.7812 0.0000 0
M  V30 8 N 0.7812 -1.5625 0.0000 0
M  V30 9 N 1.9531 0.3906 0.0000 0
M  V30 10 H -3.5156 -0.1953 0.0000 0
M  V30 11 H -2.1484 2.1484 0.0000 0
M  V30 12 H -1.9531 -2.3438 0.0000 0
M  V30 13 H 0.9766 2.3438 0.0000 0
M  V30 14 H 2.9297 -1.3672 0.0000 0
M  V30 15 H 2.7344 0.9766 0.0000 0
M  V30 END ATOM
M  V30 BEGIN BOND
M  V30 1 1 1 2
M  V30 2 3 1 3
M  V30 3 1 1 10
M  V30 4 2 2 4
M  V30 5 1 2 12
M  V30 6 3 3 5
M  V30 7 1 3 11
M  V30 8 2 4 5
M  V30 9 1 4 8
M  V30 10 2 5 6
M  V30 11 1 6 9
M  V30 12 1 6 13
M  V30 13 1 7 8
M  V30 14 1 7 9
M  V30 15 1 7 14
M  V30 16 1 9 15
M  V30 END BOND
M  V30 END CTAB
M  END
>  <ID>
376
$$$$
Structure_377
Score 	 12.0, smilesprid 	smiles	 smilestrue 	smiles	 similartanimoto 	0	 similardice 	0

   15   16  0  0  0  0            999 V3000
M  V30 BEGIN CTAB
M  V30 COUNTS 15 16 0 0 0
M  V30 BEGIN ATOM
M  V30 1 C -2.5391 -0.1953 0.0000 0
M  V30 2 C -1.7578 -1.3672 0.0000 0
M  V30 3 C -1.7578 0.9766 0.0000 0
M  V30 4 C -0.3906 -0.7812 0.0000 0
M  V30 5 C -0.3906 0.5859 0.0000 0
M  V30 6 C 0.7812 1.1719 0.0000 0
M  V30 7 C 1.9531 -0.7812 0.0000 0
M  V30 8 N 0.7812 -1.5625 0.0000 0
M  V30 9 N 1.9531 0.3906 0.0000 0
M  V30 10 H -3.5156 -0.1953 0.0000 0
M  V30 11 H -2.1484 2.1484 0.0000 0
M  V30 12 H -1.9531 -2.3438 0.0000 0
M  V30 13 H 0.9766 2.3438 0.0000 0
M  V30 14 H 2.9297 -1.3672 0.0000 0
M  V30 15 H 2.7344 0.9766 0.0000 0
M  V30 END ATOM
M  V30 BEGIN BOND
M  V30 1 2 1 2
M  V30 2 3 1 3
M  V30 3 1 1 10
M  V30 4 2 2 4
M  V30 5 1 2 12
M  V30 6 3 3 5
M  V30 7 1 3 11
M  V30 8 2 4 5
M  V30 9 1 4 8
M  V30 10 2 5 6
M  V30 11 1 6 9
M  V30 12 1 6 13
M  V30 13 1 7 8
M  V30 14 1 7 9
M  V30 15 1 7 14
M  V30 16 1 9 15
M  V30 END BOND
M  V30 END CTAB
M  END
>  <ID>
377
$$$$
Structure_378
Score 	 14.0, smilesprid 	smiles	 smilestrue 	smiles	 similartanimoto 	0	 similardice 	0

   15   16  0  0  0  0            999 V3000
M  V30 BEGIN CTAB
M  V30 COUNTS 15 16 0 0 0
M  V30 BEGIN ATOM
M  V30 1 C -2.5391 -0.1953 0.0000 0
M  V30 2 C -1.7578 -1.3672 0.0000 0
M  V30 3 C -1.7578 0.9766 0.0000 0
M  V30 4 C -0.3906 -0.7812 0.0000 0
M  V30 5 C -0.3906 0.5859 0.0000 0
M  V30 6 C 0.7812 1.1719 0.0000 0
M  V30 7 C 1.9531 -0.7812 0.0000 0
M  V30 8 N 0.7812 -1.5625 0.0000 0
M  V30 9 N 1.9531 0.3906 0.0000 0
M  V30 10 H -3.5156 -0.1953 0.0000 0
M  V30 11 H -2.1484 2.1484 0.0000 0
M  V30 12 H -1.9531 -2.3438 0.0000 0
M  V30 13 H 0.9766 2.3438 0.0000 0
M  V30 14 H 2.9297 -1.3672 0.0000 0
M  V30 15 H 2.7344 0.9766 0.0000 0
M  V30 END ATOM
M  V30 BEGIN BOND
M  V30 1 3 1 2
M  V30 2 3 1 3
M  V30 3 1 1 10
M  V30 4 2 2 4
M  V30 5 1 2 12
M  V30 6 3 3 5
M  V30 7 1 3 11
M  V30 8 2 4 5
M  V30 9 1 4 8
M  V30 10 2 5 6
M  V30 11 1 6 9
M  V30 12 1 6 13
M  V30 13 1 7 8
M  V30 14 1 7 9
M  V30 15 1 7 14
M  V30 16 1 9 15
M  V30 END BOND
M  V30 END CTAB
M  END
>  <ID>
378
$$$$
Structure_379
Score 	 8.0, smilesprid 	smiles	 smilestrue 	smiles	 similartanimoto 	0	 similardice 	0

   15   16  0  0  0  0            999 V3000
M  V30 BEGIN CTAB
M  V30 COUNTS 15 16 0 0 0
M  V30 BEGIN ATOM
M  V30 1 C -2.5391 -0.1953 0.0000 0
M  V30 2 C -1.7578 -1.3672 0.0000 0
M  V30 3 C -1.7578 0.9766 0.0000 0
M  V30 4 C -0.3906 -0.7812 0.0000 0
M  V30 5 C -0.3906 0.5859 0.0000 0
M  V30 6 C 0.7812 1.1719 0.0000 0
M  V30 7 C 1.9531 -0.7812 0.0000 0
M  V30 8 N 0.7812 -1.5625 0.0000 0
M  V30 9 N 1.9531 0.3906 0.0000 0
M  V30 10 H -3.5156 -0.1953 0.0000 0
M  V30 11 H -2.1484 2.1484 0.0000 0
M  V30 12 H -1.9531 -2.3438 0.0000 0
M  V30 13 H 0.9766 2.3438 0.0000 0
M  V30 14 H 2.9297 -1.3672 0.0000 0
M  V30 15 H 2.7344 0.9766 0.0000 0
M  V30 END ATOM
M  V30 BEGIN BOND
M  V30 1 1 1 2
M  V30 2 1 1 3
M  V30 3 1 1 10
M  V30 4 3 2 4
M  V30 5 1 2 12
M  V30 6 1 3 5
M  V30 7 1 3 11
M  V30 8 2 4 5
M  V30 9 1 4 8
M  V30 10 2 5 6
M  V30 11 1 6 9
M  V30 12 1 6 13
M  V30 13 1 7 8
M  V30 14 1 7 9
M  V30 15 1 7 14
M  V30 16 1 9 15
M  V30 END BOND
M  V30 END CTAB
M  END
>  <ID>
379
$$$$
Structure_380
Score 	 8.0, smilesprid 	smiles	 smilestrue 	smiles	 similartanimoto 	0	 similardice 	0

   15   16  0  0  0  0            999 V3000
M  V30 BEGIN CTAB
M  V30 COUNTS 15 16 0 0 0
M  V30 BEGIN ATOM
M  V30 1 C -2.5391 -0.1953 0.0000 0
M  V30 2 C -1.7578 -1.3672 0.0000 0
M  V30 3 C -1.7578 0.9766 0.0000 0
M  V30 4 C -0.3906 -0.7812 0.0000 0
M  V30 5 C -0.3906 0.5859 0.0000 0
M  V30 6 C 0.7812 1.1719 0.0000 0
M  V30 7 C 1.9531 -0.7812 0.0000 0
M  V30 8 N 0.7812 -1.5625 0.0000 0
M  V30 9 N 1.9531 0.3906 0.0000 0
M  V30 10 H -3.5156 -0.1953 0.0000 0
M  V30 11 H -2.1484 2.1484 0.0000 0
M  V30 12 H -1.9531 -2.3438 0.0000 0
M  V30 13 H 0.9766 2.3438 0.0000 0
M  V30 14 H 2.9297 -1.3672 0.0000 0
M  V30 15 H 2.7344 0.9766 0.0000 0
M  V30 END ATOM
M  V30 BEGIN BOND
M  V30 1 2 1 2
M  V30 2 1 1 3
M  V30 3 1 1 10
M  V30 4 3 2 4
M  V30 5 1 2 12
M  V30 6 1 3 5
M  V30 7 1 3 11
M  V30 8 2 4 5
M  V30 9 1 4 8
M  V30 10 2 5 6
M  V30 11 1 6 9
M  V30 12 1 6 13
M  V30 13 1 7 8
M  V30 14 1 7 9
M  V30 15 1 7 14
M  V30 16 1 9 15
M  V30 END BOND
M  V30 END CTAB
M  END
>  <ID>
380
$$$$
Structure_381
Score 	 10.0, smilesprid 	smiles	 smilestrue 	smiles	 similartanimoto 	0	 similardice 	0

   15   16  0  0  0  0            999 V3000
M  V30 BEGIN CTAB
M  V30 COUNTS 15 16 0 0 0
M  V30 BEGIN ATOM
M  V30 1 C -2.5391 -0.1953 0.0000 0
M  V30 2 C -1.7578 -1.3672 0.0000 0
M  V30 3 C -1.7578 0.9766 0.0000 0
M  V30 4 C -0.3906 -0.7812 0.0000 0
M  V30 5 C -0.3906 0.5859 0.0000 0
M  V30 6 C 0.7812 1.1719 0.0000 0
M  V30 7 C 1.9531 -0.7812 0.0000 0
M  V30 8 N 0.7812 -1.5625 0.0000 0
M  V30 9 N 1.9531 0.3906 0.0000 0
M  V30 10 H -3.5156 -0.1953 0.0000 0
M  V30 11 H -2.1484 2.1484 0.0000 0
M  V30 12 H -1.9531 -2.3438 0.0000 0
M  V30 13 H 0.9766 2.3438 0.0000 0
M  V30 14 H 2.9297 -1.3672 0.0000 0
M  V30 15 H 2.7344 0.9766 0.0000 0
M  V30 END ATOM
M  V30 BEGIN BOND
M  V30 1 3 1 2
M  V30 2 1 1 3
M  V30 3 1 1 10
M  V30 4 3 2 4
M  V30 5 1 2 12
M  V30 6 1 3 5
M  V30 7 1 3 11
M  V30 8 2 4 5
M  V30 9 1 4 8
M  V30 10 2 5 6
M  V30 11 1 6 9
M  V30 12 1 6 13
M  V30 13 1 7 8
M  V30 14 1 7 9
M  V30 15 1 7 14
M  V30 16 1 9 15
M  V30 END BOND
M  V30 END CTAB
M  END
>  <ID>
381
$$$$
Structure_382
Score 	 6.0, smilesprid 	smiles	 smilestrue 	smiles	 similartanimoto 	0	 similardice 	0

   15   16  0  0  0  0            999 V3000
M  V30 BEGIN CTAB
M  V30 COUNTS 15 16 0 0 0
M  V30 BEGIN ATOM
M  V30 1 C -2.5391 -0.1953 0.0000 0
M  V30 2 C -1.7578 -1.3672 0.0000 0
M  V30 3 C -1.7578 0.9766 0.0000 0
M  V30 4 C -0.3906 -0.7812 0.0000 0
M  V30 5 C -0.3906 0.5859 0.0000 0
M  V30 6 C 0.7812 1.1719 0.0000 0
M  V30 7 C 1.9531 -0.7812 0.0000 0
M  V30 8 N 0.7812 -1.5625 0.0000 0
M  V30 9 N 1.9531 0.3906 0.0000 0
M  V30 10 H -3.5156 -0.1953 0.0000 0
M  V30 11 H -2.1484 2.1484 0.0000 0
M  V30 12 H -1.9531 -2.3438 0.0000 0
M  V30 13 H 0.9766 2.3438 0.0000 0
M  V30 14 H 2.9297 -1.3672 0.0000 0
M  V30 15 H 2.7344 0.9766 0.0000 0
M  V30 END ATOM
M  V30 BEGIN BOND
M  V30 1 1 1 2
M  V30 2 2 1 3
M  V30 3 1 1 10
M  V30 4 3 2 4
M  V30 5 1 2 12
M  V30 6 1 3 5
M  V30 7 1 3 11
M  V30 8 2 4 5
M  V30 9 1 4 8
M  V30 10 2 5 6
M  V30 11 1 6 9
M  V30 12 1 6 13
M  V30 13 1 7 8
M  V30 14 1 7 9
M  V30 15 1 7 14
M  V30 16 1 9 15
M  V30 END BOND
M  V30 END CTAB
M  END
>  <ID>
382
$$$$
Structure_383
Score 	 8.0, smilesprid 	smiles	 smilestrue 	smiles	 similartanimoto 	0	 similardice 	0

   15   16  0  0  0  0            999 V3000
M  V30 BEGIN CTAB
M  V30 COUNTS 15 16 0 0 0
M  V30 BEGIN ATOM
M  V30 1 C -2.5391 -0.1953 0.0000 0
M  V30 2 C -1.7578 -1.3672 0.0000 0
M  V30 3 C -1.7578 0.9766 0.0000 0
M  V30 4 C -0.3906 -0.7812 0.0000 0
M  V30 5 C -0.3906 0.5859 0.0000 0
M  V30 6 C 0.7812 1.1719 0.0000 0
M  V30 7 C 1.9531 -0.7812 0.0000 0
M  V30 8 N 0.7812 -1.5625 0.0000 0
M  V30 9 N 1.9531 0.3906 0.0000 0
M  V30 10 H -3.5156 -0.1953 0.0000 0
M  V30 11 H -2.1484 2.1484 0.0000 0
M  V30 12 H -1.9531 -2.3438 0.0000 0
M  V30 13 H 0.9766 2.3438 0.0000 0
M  V30 14 H 2.9297 -1.3672 0.0000 0
M  V30 15 H 2.7344 0.9766 0.0000 0
M  V30 END ATOM
M  V30 BEGIN BOND
M  V30 1 2 1 2
M  V30 2 2 1 3
M  V30 3 1 1 10
M  V30 4 3 2 4
M  V30 5 1 2 12
M  V30 6 1 3 5
M  V30 7 1 3 11
M  V30 8 2 4 5
M  V30 9 1 4 8
M  V30 10 2 5 6
M  V30 11 1 6 9
M  V30 12 1 6 13
M  V30 13 1 7 8
M  V30 14 1 7 9
M  V30 15 1 7 14
M  V30 16 1 9 15
M  V30 END BOND
M  V30 END CTAB
M  END
>  <ID>
383
$$$$
Structure_384
Score 	 10.0, smilesprid 	smiles	 smilestrue 	smiles	 similartanimoto 	0	 similardice 	0

   15   16  0  0  0  0            999 V3000
M  V30 BEGIN CTAB
M  V30 COUNTS 15 16 0 0 0
M  V30 BEGIN ATOM
M  V30 1 C -2.5391 -0.1953 0.0000 0
M  V30 2 C -1.7578 -1.3672 0.0000 0
M  V30 3 C -1.7578 0.9766 0.0000 0
M  V30 4 C -0.3906 -0.7812 0.0000 0
M  V30 5 C -0.3906 0.5859 0.0000 0
M  V30 6 C 0.7812 1.1719 0.0000 0
M  V30 7 C 1.9531 -0.7812 0.0000 0
M  V30 8 N 0.7812 -1.5625 0.0000 0
M  V30 9 N 1.9531 0.3906 0.0000 0
M  V30 10 H -3.5156 -0.1953 0.0000 0
M  V30 11 H -2.1484 2.1484 0.0000 0
M  V30 12 H -1.9531 -2.3438 0.0000 0
M  V30 13 H 0.9766 2.3438 0.0000 0
M  V30 14 H 2.9297 -1.3672 0.0000 0
M  V30 15 H 2.7344 0.9766 0.0000 0
M  V30 END ATOM
M  V30 BEGIN BOND
M  V30 1 3 1 2
M  V30 2 2 1 3
M  V30 3 1 1 10
M  V30 4 3 2 4
M  V30 5 1 2 12
M  V30 6 1 3 5
M  V30 7 1 3 11
M  V30 8 2 4 5
M  V30 9 1 4 8
M  V30 10 2 5 6
M  V30 11 1 6 9
M  V30 12 1 6 13
M  V30 13 1 7 8
M  V30 14 1 7 9
M  V30 15 1 7 14
M  V30 16 1 9 15
M  V30 END BOND
M  V30 END CTAB
M  END
>  <ID>
384
$$$$
Structure_385
Score 	 8.0, smilesprid 	smiles	 smilestrue 	smiles	 similartanimoto 	0	 similardice 	0

   15   16  0  0  0  0            999 V3000
M  V30 BEGIN CTAB
M  V30 COUNTS 15 16 0 0 0
M  V30 BEGIN ATOM
M  V30 1 C -2.5391 -0.1953 0.0000 0
M  V30 2 C -1.7578 -1.3672 0.0000 0
M  V30 3 C -1.7578 0.9766 0.0000 0
M  V30 4 C -0.3906 -0.7812 0.0000 0
M  V30 5 C -0.3906 0.5859 0.0000 0
M  V30 6 C 0.7812 1.1719 0.0000 0
M  V30 7 C 1.9531 -0.7812 0.0000 0
M  V30 8 N 0.7812 -1.5625 0.0000 0
M  V30 9 N 1.9531 0.3906 0.0000 0
M  V30 10 H -3.5156 -0.1953 0.0000 0
M  V30 11 H -2.1484 2.1484 0.0000 0
M  V30 12 H -1.9531 -2.3438 0.0000 0
M  V30 13 H 0.9766 2.3438 0.0000 0
M  V30 14 H 2.9297 -1.3672 0.0000 0
M  V30 15 H 2.7344 0.9766 0.0000 0
M  V30 END ATOM
M  V30 BEGIN BOND
M  V30 1 1 1 2
M  V30 2 3 1 3
M  V30 3 1 1 10
M  V30 4 3 2 4
M  V30 5 1 2 12
M  V30 6 1 3 5
M  V30 7 1 3 11
M  V30 8 2 4 5
M  V30 9 1 4 8
M  V30 10 2 5 6
M  V30 11 1 6 9
M  V30 12 1 6 13
M  V30 13 1 7 8
M  V30 14 1 7 9
M  V30 15 1 7 14
M  V30 16 1 9 15
M  V30 END BOND
M  V30 END CTAB
M  END
>  <ID>
385
$$$$
Structure_386
Score 	 10.0, smilesprid 	smiles	 smilestrue 	smiles	 similartanimoto 	0	 similardice 	0

   15   16  0  0  0  0            999 V3000
M  V30 BEGIN CTAB
M  V30 COUNTS 15 16 0 0 0
M  V30 BEGIN ATOM
M  V30 1 C -2.5391 -0.1953 0.0000 0
M  V30 2 C -1.7578 -1.3672 0.0000 0
M  V30 3 C -1.7578 0.9766 0.0000 0
M  V30 4 C -0.3906 -0.7812 0.0000 0
M  V30 5 C -0.3906 0.5859 0.0000 0
M  V30 6 C 0.7812 1.1719 0.0000 0
M  V30 7 C 1.9531 -0.7812 0.0000 0
M  V30 8 N 0.7812 -1.5625 0.0000 0
M  V30 9 N 1.9531 0.3906 0.0000 0
M  V30 10 H -3.5156 -0.1953 0.0000 0
M  V30 11 H -2.1484 2.1484 0.0000 0
M  V30 12 H -1.9531 -2.3438 0.0000 0
M  V30 13 H 0.9766 2.3438 0.0000 0
M  V30 14 H 2.9297 -1.3672 0.0000 0
M  V30 15 H 2.7344 0.9766 0.0000 0
M  V30 END ATOM
M  V30 BEGIN BOND
M  V30 1 2 1 2
M  V30 2 3 1 3
M  V30 3 1 1 10
M  V30 4 3 2 4
M  V30 5 1 2 12
M  V30 6 1 3 5
M  V30 7 1 3 11
M  V30 8 2 4 5
M  V30 9 1 4 8
M  V30 10 2 5 6
M  V30 11 1 6 9
M  V30 12 1 6 13
M  V30 13 1 7 8
M  V30 14 1 7 9
M  V30 15 1 7 14
M  V30 16 1 9 15
M  V30 END BOND
M  V30 END CTAB
M  END
>  <ID>
386
$$$$
Structure_387
Score 	 12.0, smilesprid 	smiles	 smilestrue 	smiles	 similartanimoto 	0	 similardice 	0

   15   16  0  0  0  0            999 V3000
M  V30 BEGIN CTAB
M  V30 COUNTS 15 16 0 0 0
M  V30 BEGIN ATOM
M  V30 1 C -2.5391 -0.1953 0.0000 0
M  V30 2 C -1.7578 -1.3672 0.0000 0
M  V30 3 C -1.7578 0.9766 0.0000 0
M  V30 4 C -0.3906 -0.7812 0.0000 0
M  V30 5 C -0.3906 0.5859 0.0000 0
M  V30 6 C 0.7812 1.1719 0.0000 0
M  V30 7 C 1.9531 -0.7812 0.0000 0
M  V30 8 N 0.7812 -1.5625 0.0000 0
M  V30 9 N 1.9531 0.3906 0.0000 0
M  V30 10 H -3.5156 -0.1953 0.0000 0
M  V30 11 H -2.1484 2.1484 0.0000 0
M  V30 12 H -1.9531 -2.3438 0.0000 0
M  V30 13 H 0.9766 2.3438 0.0000 0
M  V30 14 H 2.9297 -1.3672 0.0000 0
M  V30 15 H 2.7344 0.9766 0.0000 0
M  V30 END ATOM
M  V30 BEGIN BOND
M  V30 1 3 1 2
M  V30 2 3 1 3
M  V30 3 1 1 10
M  V30 4 3 2 4
M  V30 5 1 2 12
M  V30 6 1 3 5
M  V30 7 1 3 11
M  V30 8 2 4 5
M  V30 9 1 4 8
M  V30 10 2 5 6
M  V30 11 1 6 9
M  V30 12 1 6 13
M  V30 13 1 7 8
M  V30 14 1 7 9
M  V30 15 1 7 14
M  V30 16 1 9 15
M  V30 END BOND
M  V30 END CTAB
M  END
>  <ID>
387
$$$$
Structure_388
Score 	 8.0, smilesprid 	smiles	 smilestrue 	smiles	 similartanimoto 	0	 similardice 	0

   15   16  0  0  0  0            999 V3000
M  V30 BEGIN CTAB
M  V30 COUNTS 15 16 0 0 0
M  V30 BEGIN ATOM
M  V30 1 C -2.5391 -0.1953 0.0000 0
M  V30 2 C -1.7578 -1.3672 0.0000 0
M  V30 3 C -1.7578 0.9766 0.0000 0
M  V30 4 C -0.3906 -0.7812 0.0000 0
M  V30 5 C -0.3906 0.5859 0.0000 0
M  V30 6 C 0.7812 1.1719 0.0000 0
M  V30 7 C 1.9531 -0.7812 0.0000 0
M  V30 8 N 0.7812 -1.5625 0.0000 0
M  V30 9 N 1.9531 0.3906 0.0000 0
M  V30 10 H -3.5156 -0.1953 0.0000 0
M  V30 11 H -2.1484 2.1484 0.0000 0
M  V30 12 H -1.9531 -2.3438 0.0000 0
M  V30 13 H 0.9766 2.3438 0.0000 0
M  V30 14 H 2.9297 -1.3672 0.0000 0
M  V30 15 H 2.7344 0.9766 0.0000 0
M  V30 END ATOM
M  V30 BEGIN BOND
M  V30 1 1 1 2
M  V30 2 1 1 3
M  V30 3 1 1 10
M  V30 4 3 2 4
M  V30 5 1 2 12
M  V30 6 2 3 5
M  V30 7 1 3 11
M  V30 8 2 4 5
M  V30 9 1 4 8
M  V30 10 2 5 6
M  V30 11 1 6 9
M  V30 12 1 6 13
M  V30 13 1 7 8
M  V30 14 1 7 9
M  V30 15 1 7 14
M  V30 16 1 9 15
M  V30 END BOND
M  V30 END CTAB
M  END
>  <ID>
388
$$$$
Structure_389
Score 	 8.0, smilesprid 	smiles	 smilestrue 	smiles	 similartanimoto 	0	 similardice 	0

   15   16  0  0  0  0            999 V3000
M  V30 BEGIN CTAB
M  V30 COUNTS 15 16 0 0 0
M  V30 BEGIN ATOM
M  V30 1 C -2.5391 -0.1953 0.0000 0
M  V30 2 C -1.7578 -1.3672 0.0000 0
M  V30 3 C -1.7578 0.9766 0.0000 0
M  V30 4 C -0.3906 -0.7812 0.0000 0
M  V30 5 C -0.3906 0.5859 0.0000 0
M  V30 6 C 0.7812 1.1719 0.0000 0
M  V30 7 C 1.9531 -0.7812 0.0000 0
M  V30 8 N 0.7812 -1.5625 0.0000 0
M  V30 9 N 1.9531 0.3906 0.0000 0
M  V30 10 H -3.5156 -0.1953 0.0000 0
M  V30 11 H -2.1484 2.1484 0.0000 0
M  V30 12 H -1.9531 -2.3438 0.0000 0
M  V30 13 H 0.9766 2.3438 0.0000 0
M  V30 14 H 2.9297 -1.3672 0.0000 0
M  V30 15 H 2.7344 0.9766 0.0000 0
M  V30 END ATOM
M  V30 BEGIN BOND
M  V30 1 2 1 2
M  V30 2 1 1 3
M  V30 3 1 1 10
M  V30 4 3 2 4
M  V30 5 1 2 12
M  V30 6 2 3 5
M  V30 7 1 3 11
M  V30 8 2 4 5
M  V30 9 1 4 8
M  V30 10 2 5 6
M  V30 11 1 6 9
M  V30 12 1 6 13
M  V30 13 1 7 8
M  V30 14 1 7 9
M  V30 15 1 7 14
M  V30 16 1 9 15
M  V30 END BOND
M  V30 END CTAB
M  END
>  <ID>
389
$$$$
Structure_390
Score 	 10.0, smilesprid 	smiles	 smilestrue 	smiles	 similartanimoto 	0	 similardice 	0

   15   16  0  0  0  0            999 V3000
M  V30 BEGIN CTAB
M  V30 COUNTS 15 16 0 0 0
M  V30 BEGIN ATOM
M  V30 1 C -2.5391 -0.1953 0.0000 0
M  V30 2 C -1.7578 -1.3672 0.0000 0
M  V30 3 C -1.7578 0.9766 0.0000 0
M  V30 4 C -0.3906 -0.7812 0.0000 0
M  V30 5 C -0.3906 0.5859 0.0000 0
M  V30 6 C 0.7812 1.1719 0.0000 0
M  V30 7 C 1.9531 -0.7812 0.0000 0
M  V30 8 N 0.7812 -1.5625 0.0000 0
M  V30 9 N 1.9531 0.3906 0.0000 0
M  V30 10 H -3.5156 -0.1953 0.0000 0
M  V30 11 H -2.1484 2.1484 0.0000 0
M  V30 12 H -1.9531 -2.3438 0.0000 0
M  V30 13 H 0.9766 2.3438 0.0000 0
M  V30 14 H 2.9297 -1.3672 0.0000 0
M  V30 15 H 2.7344 0.9766 0.0000 0
M  V30 END ATOM
M  V30 BEGIN BOND
M  V30 1 3 1 2
M  V30 2 1 1 3
M  V30 3 1 1 10
M  V30 4 3 2 4
M  V30 5 1 2 12
M  V30 6 2 3 5
M  V30 7 1 3 11
M  V30 8 2 4 5
M  V30 9 1 4 8
M  V30 10 2 5 6
M  V30 11 1 6 9
M  V30 12 1 6 13
M  V30 13 1 7 8
M  V30 14 1 7 9
M  V30 15 1 7 14
M  V30 16 1 9 15
M  V30 END BOND
M  V30 END CTAB
M  END
>  <ID>
390
$$$$
Structure_391
Score 	 8.0, smilesprid 	smiles	 smilestrue 	smiles	 similartanimoto 	0	 similardice 	0

   15   16  0  0  0  0            999 V3000
M  V30 BEGIN CTAB
M  V30 COUNTS 15 16 0 0 0
M  V30 BEGIN ATOM
M  V30 1 C -2.5391 -0.1953 0.0000 0
M  V30 2 C -1.7578 -1.3672 0.0000 0
M  V30 3 C -1.7578 0.9766 0.0000 0
M  V30 4 C -0.3906 -0.7812 0.0000 0
M  V30 5 C -0.3906 0.5859 0.0000 0
M  V30 6 C 0.7812 1.1719 0.0000 0
M  V30 7 C 1.9531 -0.7812 0.0000 0
M  V30 8 N 0.7812 -1.5625 0.0000 0
M  V30 9 N 1.9531 0.3906 0.0000 0
M  V30 10 H -3.5156 -0.1953 0.0000 0
M  V30 11 H -2.1484 2.1484 0.0000 0
M  V30 12 H -1.9531 -2.3438 0.0000 0
M  V30 13 H 0.9766 2.3438 0.0000 0
M  V30 14 H 2.9297 -1.3672 0.0000 0
M  V30 15 H 2.7344 0.9766 0.0000 0
M  V30 END ATOM
M  V30 BEGIN BOND
M  V30 1 1 1 2
M  V30 2 2 1 3
M  V30 3 1 1 10
M  V30 4 3 2 4
M  V30 5 1 2 12
M  V30 6 2 3 5
M  V30 7 1 3 11
M  V30 8 2 4 5
M  V30 9 1 4 8
M  V30 10 2 5 6
M  V30 11 1 6 9
M  V30 12 1 6 13
M  V30 13 1 7 8
M  V30 14 1 7 9
M  V30 15 1 7 14
M  V30 16 1 9 15
M  V30 END BOND
M  V30 END CTAB
M  END
>  <ID>
391
$$$$
Structure_392
Score 	 10.0, smilesprid 	smiles	 smilestrue 	smiles	 similartanimoto 	0	 similardice 	0

   15   16  0  0  0  0            999 V3000
M  V30 BEGIN CTAB
M  V30 COUNTS 15 16 0 0 0
M  V30 BEGIN ATOM
M  V30 1 C -2.5391 -0.1953 0.0000 0
M  V30 2 C -1.7578 -1.3672 0.0000 0
M  V30 3 C -1.7578 0.9766 0.0000 0
M  V30 4 C -0.3906 -0.7812 0.0000 0
M  V30 5 C -0.3906 0.5859 0.0000 0
M  V30 6 C 0.7812 1.1719 0.0000 0
M  V30 7 C 1.9531 -0.7812 0.0000 0
M  V30 8 N 0.7812 -1.5625 0.0000 0
M  V30 9 N 1.9531 0.3906 0.0000 0
M  V30 10 H -3.5156 -0.1953 0.0000 0
M  V30 11 H -2.1484 2.1484 0.0000 0
M  V30 12 H -1.9531 -2.3438 0.0000 0
M  V30 13 H 0.9766 2.3438 0.0000 0
M  V30 14 H 2.9297 -1.3672 0.0000 0
M  V30 15 H 2.7344 0.9766 0.0000 0
M  V30 END ATOM
M  V30 BEGIN BOND
M  V30 1 2 1 2
M  V30 2 2 1 3
M  V30 3 1 1 10
M  V30 4 3 2 4
M  V30 5 1 2 12
M  V30 6 2 3 5
M  V30 7 1 3 11
M  V30 8 2 4 5
M  V30 9 1 4 8
M  V30 10 2 5 6
M  V30 11 1 6 9
M  V30 12 1 6 13
M  V30 13 1 7 8
M  V30 14 1 7 9
M  V30 15 1 7 14
M  V30 16 1 9 15
M  V30 END BOND
M  V30 END CTAB
M  END
>  <ID>
392
$$$$
Structure_393
Score 	 12.0, smilesprid 	smiles	 smilestrue 	smiles	 similartanimoto 	0	 similardice 	0

   15   16  0  0  0  0            999 V3000
M  V30 BEGIN CTAB
M  V30 COUNTS 15 16 0 0 0
M  V30 BEGIN ATOM
M  V30 1 C -2.5391 -0.1953 0.0000 0
M  V30 2 C -1.7578 -1.3672 0.0000 0
M  V30 3 C -1.7578 0.9766 0.0000 0
M  V30 4 C -0.3906 -0.7812 0.0000 0
M  V30 5 C -0.3906 0.5859 0.0000 0
M  V30 6 C 0.7812 1.1719 0.0000 0
M  V30 7 C 1.9531 -0.7812 0.0000 0
M  V30 8 N 0.7812 -1.5625 0.0000 0
M  V30 9 N 1.9531 0.3906 0.0000 0
M  V30 10 H -3.5156 -0.1953 0.0000 0
M  V30 11 H -2.1484 2.1484 0.0000 0
M  V30 12 H -1.9531 -2.3438 0.0000 0
M  V30 13 H 0.9766 2.3438 0.0000 0
M  V30 14 H 2.9297 -1.3672 0.0000 0
M  V30 15 H 2.7344 0.9766 0.0000 0
M  V30 END ATOM
M  V30 BEGIN BOND
M  V30 1 3 1 2
M  V30 2 2 1 3
M  V30 3 1 1 10
M  V30 4 3 2 4
M  V30 5 1 2 12
M  V30 6 2 3 5
M  V30 7 1 3 11
M  V30 8 2 4 5
M  V30 9 1 4 8
M  V30 10 2 5 6
M  V30 11 1 6 9
M  V30 12 1 6 13
M  V30 13 1 7 8
M  V30 14 1 7 9
M  V30 15 1 7 14
M  V30 16 1 9 15
M  V30 END BOND
M  V30 END CTAB
M  END
>  <ID>
393
$$$$
Structure_394
Score 	 10.0, smilesprid 	smiles	 smilestrue 	smiles	 similartanimoto 	0	 similardice 	0

   15   16  0  0  0  0            999 V3000
M  V30 BEGIN CTAB
M  V30 COUNTS 15 16 0 0 0
M  V30 BEGIN ATOM
M  V30 1 C -2.5391 -0.1953 0.0000 0
M  V30 2 C -1.7578 -1.3672 0.0000 0
M  V30 3 C -1.7578 0.9766 0.0000 0
M  V30 4 C -0.3906 -0.7812 0.0000 0
M  V30 5 C -0.3906 0.5859 0.0000 0
M  V30 6 C 0.7812 1.1719 0.0000 0
M  V30 7 C 1.9531 -0.7812 0.0000 0
M  V30 8 N 0.7812 -1.5625 0.0000 0
M  V30 9 N 1.9531 0.3906 0.0000 0
M  V30 10 H -3.5156 -0.1953 0.0000 0
M  V30 11 H -2.1484 2.1484 0.0000 0
M  V30 12 H -1.9531 -2.3438 0.0000 0
M  V30 13 H 0.9766 2.3438 0.0000 0
M  V30 14 H 2.9297 -1.3672 0.0000 0
M  V30 15 H 2.7344 0.9766 0.0000 0
M  V30 END ATOM
M  V30 BEGIN BOND
M  V30 1 1 1 2
M  V30 2 3 1 3
M  V30 3 1 1 10
M  V30 4 3 2 4
M  V30 5 1 2 12
M  V30 6 2 3 5
M  V30 7 1 3 11
M  V30 8 2 4 5
M  V30 9 1 4 8
M  V30 10 2 5 6
M  V30 11 1 6 9
M  V30 12 1 6 13
M  V30 13 1 7 8
M  V30 14 1 7 9
M  V30 15 1 7 14
M  V30 16 1 9 15
M  V30 END BOND
M  V30 END CTAB
M  END
>  <ID>
394
$$$$
Structure_395
Score 	 12.0, smilesprid 	smiles	 smilestrue 	smiles	 similartanimoto 	0	 similardice 	0

   15   16  0  0  0  0            999 V3000
M  V30 BEGIN CTAB
M  V30 COUNTS 15 16 0 0 0
M  V30 BEGIN ATOM
M  V30 1 C -2.5391 -0.1953 0.0000 0
M  V30 2 C -1.7578 -1.3672 0.0000 0
M  V30 3 C -1.7578 0.9766 0.0000 0
M  V30 4 C -0.3906 -0.7812 0.0000 0
M  V30 5 C -0.3906 0.5859 0.0000 0
M  V30 6 C 0.7812 1.1719 0.0000 0
M  V30 7 C 1.9531 -0.7812 0.0000 0
M  V30 8 N 0.7812 -1.5625 0.0000 0
M  V30 9 N 1.9531 0.3906 0.0000 0
M  V30 10 H -3.5156 -0.1953 0.0000 0
M  V30 11 H -2.1484 2.1484 0.0000 0
M  V30 12 H -1.9531 -2.3438 0.0000 0
M  V30 13 H 0.9766 2.3438 0.0000 0
M  V30 14 H 2.9297 -1.3672 0.0000 0
M  V30 15 H 2.7344 0.9766 0.0000 0
M  V30 END ATOM
M  V30 BEGIN BOND
M  V30 1 2 1 2
M  V30 2 3 1 3
M  V30 3 1 1 10
M  V30 4 3 2 4
M  V30 5 1 2 12
M  V30 6 2 3 5
M  V30 7 1 3 11
M  V30 8 2 4 5
M  V30 9 1 4 8
M  V30 10 2 5 6
M  V30 11 1 6 9
M  V30 12 1 6 13
M  V30 13 1 7 8
M  V30 14 1 7 9
M  V30 15 1 7 14
M  V30 16 1 9 15
M  V30 END BOND
M  V30 END CTAB
M  END
>  <ID>
395
$$$$
Structure_396
Score 	 14.0, smilesprid 	smiles	 smilestrue 	smiles	 similartanimoto 	0	 similardice 	0

   15   16  0  0  0  0            999 V3000
M  V30 BEGIN CTAB
M  V30 COUNTS 15 16 0 0 0
M  V30 BEGIN ATOM
M  V30 1 C -2.5391 -0.1953 0.0000 0
M  V30 2 C -1.7578 -1.3672 0.0000 0
M  V30 3 C -1.7578 0.9766 0.0000 0
M  V30 4 C -0.3906 -0.7812 0.0000 0
M  V30 5 C -0.3906 0.5859 0.0000 0
M  V30 6 C 0.7812 1.1719 0.0000 0
M  V30 7 C 1.9531 -0.7812 0.0000 0
M  V30 8 N 0.7812 -1.5625 0.0000 0
M  V30 9 N 1.9531 0.3906 0.0000 0
M  V30 10 H -3.5156 -0.1953 0.0000 0
M  V30 11 H -2.1484 2.1484 0.0000 0
M  V30 12 H -1.9531 -2.3438 0.0000 0
M  V30 13 H 0.9766 2.3438 0.0000 0
M  V30 14 H 2.9297 -1.3672 0.0000 0
M  V30 15 H 2.7344 0.9766 0.0000 0
M  V30 END ATOM
M  V30 BEGIN BOND
M  V30 1 3 1 2
M  V30 2 3 1 3
M  V30 3 1 1 10
M  V30 4 3 2 4
M  V30 5 1 2 12
M  V30 6 2 3 5
M  V30 7 1 3 11
M  V30 8 2 4 5
M  V30 9 1 4 8
M  V30 10 2 5 6
M  V30 11 1 6 9
M  V30 12 1 6 13
M  V30 13 1 7 8
M  V30 14 1 7 9
M  V30 15 1 7 14
M  V30 16 1 9 15
M  V30 END BOND
M  V30 END CTAB
M  END
>  <ID>
396
$$$$
Structure_397
Score 	 10.0, smilesprid 	smiles	 smilestrue 	smiles	 similartanimoto 	0	 similardice 	0

   15   16  0  0  0  0            999 V3000
M  V30 BEGIN CTAB
M  V30 COUNTS 15 16 0 0 0
M  V30 BEGIN ATOM
M  V30 1 C -2.5391 -0.1953 0.0000 0
M  V30 2 C -1.7578 -1.3672 0.0000 0
M  V30 3 C -1.7578 0.9766 0.0000 0
M  V30 4 C -0.3906 -0.7812 0.0000 0
M  V30 5 C -0.3906 0.5859 0.0000 0
M  V30 6 C 0.7812 1.1719 0.0000 0
M  V30 7 C 1.9531 -0.7812 0.0000 0
M  V30 8 N 0.7812 -1.5625 0.0000 0
M  V30 9 N 1.9531 0.3906 0.0000 0
M  V30 10 H -3.5156 -0.1953 0.0000 0
M  V30 11 H -2.1484 2.1484 0.0000 0
M  V30 12 H -1.9531 -2.3438 0.0000 0
M  V30 13 H 0.9766 2.3438 0.0000 0
M  V30 14 H 2.9297 -1.3672 0.0000 0
M  V30 15 H 2.7344 0.9766 0.0000 0
M  V30 END ATOM
M  V30 BEGIN BOND
M  V30 1 1 1 2
M  V30 2 1 1 3
M  V30 3 1 1 10
M  V30 4 3 2 4
M  V30 5 1 2 12
M  V30 6 3 3 5
M  V30 7 1 3 11
M  V30 8 2 4 5
M  V30 9 1 4 8
M  V30 10 2 5 6
M  V30 11 1 6 9
M  V30 12 1 6 13
M  V30 13 1 7 8
M  V30 14 1 7 9
M  V30 15 1 7 14
M  V30 16 1 9 15
M  V30 END BOND
M  V30 END CTAB
M  END
>  <ID>
397
$$$$
Structure_398
Score 	 10.0, smilesprid 	smiles	 smilestrue 	smiles	 similartanimoto 	0	 similardice 	0

   15   16  0  0  0  0            999 V3000
M  V30 BEGIN CTAB
M  V30 COUNTS 15 16 0 0 0
M  V30 BEGIN ATOM
M  V30 1 C -2.5391 -0.1953 0.0000 0
M  V30 2 C -1.7578 -1.3672 0.0000 0
M  V30 3 C -1.7578 0.9766 0.0000 0
M  V30 4 C -0.3906 -0.7812 0.0000 0
M  V30 5 C -0.3906 0.5859 0.0000 0
M  V30 6 C 0.7812 1.1719 0.0000 0
M  V30 7 C 1.9531 -0.7812 0.0000 0
M  V30 8 N 0.7812 -1.5625 0.0000 0
M  V30 9 N 1.9531 0.3906 0.0000 0
M  V30 10 H -3.5156 -0.1953 0.0000 0
M  V30 11 H -2.1484 2.1484 0.0000 0
M  V30 12 H -1.9531 -2.3438 0.0000 0
M  V30 13 H 0.9766 2.3438 0.0000 0
M  V30 14 H 2.9297 -1.3672 0.0000 0
M  V30 15 H 2.7344 0.9766 0.0000 0
M  V30 END ATOM
M  V30 BEGIN BOND
M  V30 1 2 1 2
M  V30 2 1 1 3
M  V30 3 1 1 10
M  V30 4 3 2 4
M  V30 5 1 2 12
M  V30 6 3 3 5
M  V30 7 1 3 11
M  V30 8 2 4 5
M  V30 9 1 4 8
M  V30 10 2 5 6
M  V30 11 1 6 9
M  V30 12 1 6 13
M  V30 13 1 7 8
M  V30 14 1 7 9
M  V30 15 1 7 14
M  V30 16 1 9 15
M  V30 END BOND
M  V30 END CTAB
M  END
>  <ID>
398
$$$$
Structure_399
Score 	 12.0, smilesprid 	smiles	 smilestrue 	smiles	 similartanimoto 	0	 similardice 	0

   15   16  0  0  0  0            999 V3000
M  V30 BEGIN CTAB
M  V30 COUNTS 15 16 0 0 0
M  V30 BEGIN ATOM
M  V30 1 C -2.5391 -0.1953 0.0000 0
M  V30 2 C -1.7578 -1.3672 0.0000 0
M  V30 3 C -1.7578 0.9766 0.0000 0
M  V30 4 C -0.3906 -0.7812 0.0000 0
M  V30 5 C -0.3906 0.5859 0.0000 0
M  V30 6 C 0.7812 1.1719 0.0000 0
M  V30 7 C 1.9531 -0.7812 0.0000 0
M  V30 8 N 0.7812 -1.5625 0.0000 0
M  V30 9 N 1.9531 0.3906 0.0000 0
M  V30 10 H -3.5156 -0.1953 0.0000 0
M  V30 11 H -2.1484 2.1484 0.0000 0
M  V30 12 H -1.9531 -2.3438 0.0000 0
M  V30 13 H 0.9766 2.3438 0.0000 0
M  V30 14 H 2.9297 -1.3672 0.0000 0
M  V30 15 H 2.7344 0.9766 0.0000 0
M  V30 END ATOM
M  V30 BEGIN BOND
M  V30 1 3 1 2
M  V30 2 1 1 3
M  V30 3 1 1 10
M  V30 4 3 2 4
M  V30 5 1 2 12
M  V30 6 3 3 5
M  V30 7 1 3 11
M  V30 8 2 4 5
M  V30 9 1 4 8
M  V30 10 2 5 6
M  V30 11 1 6 9
M  V30 12 1 6 13
M  V30 13 1 7 8
M  V30 14 1 7 9
M  V30 15 1 7 14
M  V30 16 1 9 15
M  V30 END BOND
M  V30 END CTAB
M  END
>  <ID>
399
$$$$
Structure_400
Score 	 10.0, smilesprid 	smiles	 smilestrue 	smiles	 similartanimoto 	0	 similardice 	0

   15   16  0  0  0  0            999 V3000
M  V30 BEGIN CTAB
M  V30 COUNTS 15 16 0 0 0
M  V30 BEGIN ATOM
M  V30 1 C -2.5391 -0.1953 0.0000 0
M  V30 2 C -1.7578 -1.3672 0.0000 0
M  V30 3 C -1.7578 0.9766 0.0000 0
M  V30 4 C -0.3906 -0.7812 0.0000 0
M  V30 5 C -0.3906 0.5859 0.0000 0
M  V30 6 C 0.7812 1.1719 0.0000 0
M  V30 7 C 1.9531 -0.7812 0.0000 0
M  V30 8 N 0.7812 -1.5625 0.0000 0
M  V30 9 N 1.9531 0.3906 0.0000 0
M  V30 10 H -3.5156 -0.1953 0.0000 0
M  V30 11 H -2.1484 2.1484 0.0000 0
M  V30 12 H -1.9531 -2.3438 0.0000 0
M  V30 13 H 0.9766 2.3438 0.0000 0
M  V30 14 H 2.9297 -1.3672 0.0000 0
M  V30 15 H 2.7344 0.9766 0.0000 0
M  V30 END ATOM
M  V30 BEGIN BOND
M  V30 1 1 1 2
M  V30 2 2 1 3
M  V30 3 1 1 10
M  V30 4 3 2 4
M  V30 5 1 2 12
M  V30 6 3 3 5
M  V30 7 1 3 11
M  V30 8 2 4 5
M  V30 9 1 4 8
M  V30 10 2 5 6
M  V30 11 1 6 9
M  V30 12 1 6 13
M  V30 13 1 7 8
M  V30 14 1 7 9
M  V30 15 1 7 14
M  V30 16 1 9 15
M  V30 END BOND
M  V30 END CTAB
M  END
>  <ID>
400
$$$$
Structure_401
Score 	 12.0, smilesprid 	smiles	 smilestrue 	smiles	 similartanimoto 	0	 similardice 	0

   15   16  0  0  0  0            999 V3000
M  V30 BEGIN CTAB
M  V30 COUNTS 15 16 0 0 0
M  V30 BEGIN ATOM
M  V30 1 C -2.5391 -0.1953 0.0000 0
M  V30 2 C -1.7578 -1.3672 0.0000 0
M  V30 3 C -1.7578 0.9766 0.0000 0
M  V30 4 C -0.3906 -0.7812 0.0000 0
M  V30 5 C -0.3906 0.5859 0.0000 0
M  V30 6 C 0.7812 1.1719 0.0000 0
M  V30 7 C 1.9531 -0.7812 0.0000 0
M  V30 8 N 0.7812 -1.5625 0.0000 0
M  V30 9 N 1.9531 0.3906 0.0000 0
M  V30 10 H -3.5156 -0.1953 0.0000 0
M  V30 11 H -2.1484 2.1484 0.0000 0
M  V30 12 H -1.9531 -2.3438 0.0000 0
M  V30 13 H 0.9766 2.3438 0.0000 0
M  V30 14 H 2.9297 -1.3672 0.0000 0
M  V30 15 H 2.7344 0.9766 0.0000 0
M  V30 END ATOM
M  V30 BEGIN BOND
M  V30 1 2 1 2
M  V30 2 2 1 3
M  V30 3 1 1 10
M  V30 4 3 2 4
M  V30 5 1 2 12
M  V30 6 3 3 5
M  V30 7 1 3 11
M  V30 8 2 4 5
M  V30 9 1 4 8
M  V30 10 2 5 6
M  V30 11 1 6 9
M  V30 12 1 6 13
M  V30 13 1 7 8
M  V30 14 1 7 9
M  V30 15 1 7 14
M  V30 16 1 9 15
M  V30 END BOND
M  V30 END CTAB
M  END
>  <ID>
401
$$$$
Structure_402
Score 	 14.0, smilesprid 	smiles	 smilestrue 	smiles	 similartanimoto 	0	 similardice 	0

   15   16  0  0  0  0            999 V3000
M  V30 BEGIN CTAB
M  V30 COUNTS 15 16 0 0 0
M  V30 BEGIN ATOM
M  V30 1 C -2.5391 -0.1953 0.0000 0
M  V30 2 C -1.7578 -1.3672 0.0000 0
M  V30 3 C -1.7578 0.9766 0.0000 0
M  V30 4 C -0.3906 -0.7812 0.0000 0
M  V30 5 C -0.3906 0.5859 0.0000 0
M  V30 6 C 0.7812 1.1719 0.0000 0
M  V30 7 C 1.9531 -0.7812 0.0000 0
M  V30 8 N 0.7812 -1.5625 0.0000 0
M  V30 9 N 1.9531 0.3906 0.0000 0
M  V30 10 H -3.5156 -0.1953 0.0000 0
M  V30 11 H -2.1484 2.1484 0.0000 0
M  V30 12 H -1.9531 -2.3438 0.0000 0
M  V30 13 H 0.9766 2.3438 0.0000 0
M  V30 14 H 2.9297 -1.3672 0.0000 0
M  V30 15 H 2.7344 0.9766 0.0000 0
M  V30 END ATOM
M  V30 BEGIN BOND
M  V30 1 3 1 2
M  V30 2 2 1 3
M  V30 3 1 1 10
M  V30 4 3 2 4
M  V30 5 1 2 12
M  V30 6 3 3 5
M  V30 7 1 3 11
M  V30 8 2 4 5
M  V30 9 1 4 8
M  V30 10 2 5 6
M  V30 11 1 6 9
M  V30 12 1 6 13
M  V30 13 1 7 8
M  V30 14 1 7 9
M  V30 15 1 7 14
M  V30 16 1 9 15
M  V30 END BOND
M  V30 END CTAB
M  END
>  <ID>
402
$$$$
Structure_403
Score 	 12.0, smilesprid 	smiles	 smilestrue 	smiles	 similartanimoto 	0	 similardice 	0

   15   16  0  0  0  0            999 V3000
M  V30 BEGIN CTAB
M  V30 COUNTS 15 16 0 0 0
M  V30 BEGIN ATOM
M  V30 1 C -2.5391 -0.1953 0.0000 0
M  V30 2 C -1.7578 -1.3672 0.0000 0
M  V30 3 C -1.7578 0.9766 0.0000 0
M  V30 4 C -0.3906 -0.7812 0.0000 0
M  V30 5 C -0.3906 0.5859 0.0000 0
M  V30 6 C 0.7812 1.1719 0.0000 0
M  V30 7 C 1.9531 -0.7812 0.0000 0
M  V30 8 N 0.7812 -1.5625 0.0000 0
M  V30 9 N 1.9531 0.3906 0.0000 0
M  V30 10 H -3.5156 -0.1953 0.0000 0
M  V30 11 H -2.1484 2.1484 0.0000 0
M  V30 12 H -1.9531 -2.3438 0.0000 0
M  V30 13 H 0.9766 2.3438 0.0000 0
M  V30 14 H 2.9297 -1.3672 0.0000 0
M  V30 15 H 2.7344 0.9766 0.0000 0
M  V30 END ATOM
M  V30 BEGIN BOND
M  V30 1 1 1 2
M  V30 2 3 1 3
M  V30 3 1 1 10
M  V30 4 3 2 4
M  V30 5 1 2 12
M  V30 6 3 3 5
M  V30 7 1 3 11
M  V30 8 2 4 5
M  V30 9 1 4 8
M  V30 10 2 5 6
M  V30 11 1 6 9
M  V30 12 1 6 13
M  V30 13 1 7 8
M  V30 14 1 7 9
M  V30 15 1 7 14
M  V30 16 1 9 15
M  V30 END BOND
M  V30 END CTAB
M  END
>  <ID>
403
$$$$
Structure_404
Score 	 14.0, smilesprid 	smiles	 smilestrue 	smiles	 similartanimoto 	0	 similardice 	0

   15   16  0  0  0  0            999 V3000
M  V30 BEGIN CTAB
M  V30 COUNTS 15 16 0 0 0
M  V30 BEGIN ATOM
M  V30 1 C -2.5391 -0.1953 0.0000 0
M  V30 2 C -1.7578 -1.3672 0.0000 0
M  V30 3 C -1.7578 0.9766 0.0000 0
M  V30 4 C -0.3906 -0.7812 0.0000 0
M  V30 5 C -0.3906 0.5859 0.0000 0
M  V30 6 C 0.7812 1.1719 0.0000 0
M  V30 7 C 1.9531 -0.7812 0.0000 0
M  V30 8 N 0.7812 -1.5625 0.0000 0
M  V30 9 N 1.9531 0.3906 0.0000 0
M  V30 10 H -3.5156 -0.1953 0.0000 0
M  V30 11 H -2.1484 2.1484 0.0000 0
M  V30 12 H -1.9531 -2.3438 0.0000 0
M  V30 13 H 0.9766 2.3438 0.0000 0
M  V30 14 H 2.9297 -1.3672 0.0000 0
M  V30 15 H 2.7344 0.9766 0.0000 0
M  V30 END ATOM
M  V30 BEGIN BOND
M  V30 1 2 1 2
M  V30 2 3 1 3
M  V30 3 1 1 10
M  V30 4 3 2 4
M  V30 5 1 2 12
M  V30 6 3 3 5
M  V30 7 1 3 11
M  V30 8 2 4 5
M  V30 9 1 4 8
M  V30 10 2 5 6
M  V30 11 1 6 9
M  V30 12 1 6 13
M  V30 13 1 7 8
M  V30 14 1 7 9
M  V30 15 1 7 14
M  V30 16 1 9 15
M  V30 END BOND
M  V30 END CTAB
M  END
>  <ID>
404
$$$$
Structure_405
Score 	 16.0, smilesprid 	smiles	 smilestrue 	smiles	 similartanimoto 	0	 similardice 	0

   15   16  0  0  0  0            999 V3000
M  V30 BEGIN CTAB
M  V30 COUNTS 15 16 0 0 0
M  V30 BEGIN ATOM
M  V30 1 C -2.5391 -0.1953 0.0000 0
M  V30 2 C -1.7578 -1.3672 0.0000 0
M  V30 3 C -1.7578 0.9766 0.0000 0
M  V30 4 C -0.3906 -0.7812 0.0000 0
M  V30 5 C -0.3906 0.5859 0.0000 0
M  V30 6 C 0.7812 1.1719 0.0000 0
M  V30 7 C 1.9531 -0.7812 0.0000 0
M  V30 8 N 0.7812 -1.5625 0.0000 0
M  V30 9 N 1.9531 0.3906 0.0000 0
M  V30 10 H -3.5156 -0.1953 0.0000 0
M  V30 11 H -2.1484 2.1484 0.0000 0
M  V30 12 H -1.9531 -2.3438 0.0000 0
M  V30 13 H 0.9766 2.3438 0.0000 0
M  V30 14 H 2.9297 -1.3672 0.0000 0
M  V30 15 H 2.7344 0.9766 0.0000 0
M  V30 END ATOM
M  V30 BEGIN BOND
M  V30 1 3 1 2
M  V30 2 3 1 3
M  V30 3 1 1 10
M  V30 4 3 2 4
M  V30 5 1 2 12
M  V30 6 3 3 5
M  V30 7 1 3 11
M  V30 8 2 4 5
M  V30 9 1 4 8
M  V30 10 2 5 6
M  V30 11 1 6 9
M  V30 12 1 6 13
M  V30 13 1 7 8
M  V30 14 1 7 9
M  V30 15 1 7 14
M  V30 16 1 9 15
M  V30 END BOND
M  V30 END CTAB
M  END
>  <ID>
405
$$$$
Structure_406
Score 	 8.0, smilesprid 	smiles	 smilestrue 	smiles	 similartanimoto 	0	 similardice 	0

   15   16  0  0  0  0            999 V3000
M  V30 BEGIN CTAB
M  V30 COUNTS 15 16 0 0 0
M  V30 BEGIN ATOM
M  V30 1 C -2.5391 -0.1953 0.0000 0
M  V30 2 C -1.7578 -1.3672 0.0000 0
M  V30 3 C -1.7578 0.9766 0.0000 0
M  V30 4 C -0.3906 -0.7812 0.0000 0
M  V30 5 C -0.3906 0.5859 0.0000 0
M  V30 6 C 0.7812 1.1719 0.0000 0
M  V30 7 C 1.9531 -0.7812 0.0000 0
M  V30 8 N 0.7812 -1.5625 0.0000 0
M  V30 9 N 1.9531 0.3906 0.0000 0
M  V30 10 H -3.5156 -0.1953 0.0000 0
M  V30 11 H -2.1484 2.1484 0.0000 0
M  V30 12 H -1.9531 -2.3438 0.0000 0
M  V30 13 H 0.9766 2.3438 0.0000 0
M  V30 14 H 2.9297 -1.3672 0.0000 0
M  V30 15 H 2.7344 0.9766 0.0000 0
M  V30 END ATOM
M  V30 BEGIN BOND
M  V30 1 1 1 2
M  V30 2 1 1 3
M  V30 3 1 1 10
M  V30 4 1 2 4
M  V30 5 1 2 12
M  V30 6 1 3 5
M  V30 7 1 3 11
M  V30 8 3 4 5
M  V30 9 1 4 8
M  V30 10 2 5 6
M  V30 11 1 6 9
M  V30 12 1 6 13
M  V30 13 1 7 8
M  V30 14 1 7 9
M  V30 15 1 7 14
M  V30 16 1 9 15
M  V30 END BOND
M  V30 END CTAB
M  END
>  <ID>
406
$$$$
Structure_407
Score 	 6.0, smilesprid 	smiles	 smilestrue 	smiles	 similartanimoto 	0	 similardice 	0

   15   16  0  0  0  0            999 V3000
M  V30 BEGIN CTAB
M  V30 COUNTS 15 16 0 0 0
M  V30 BEGIN ATOM
M  V30 1 C -2.5391 -0.1953 0.0000 0
M  V30 2 C -1.7578 -1.3672 0.0000 0
M  V30 3 C -1.7578 0.9766 0.0000 0
M  V30 4 C -0.3906 -0.7812 0.0000 0
M  V30 5 C -0.3906 0.5859 0.0000 0
M  V30 6 C 0.7812 1.1719 0.0000 0
M  V30 7 C 1.9531 -0.7812 0.0000 0
M  V30 8 N 0.7812 -1.5625 0.0000 0
M  V30 9 N 1.9531 0.3906 0.0000 0
M  V30 10 H -3.5156 -0.1953 0.0000 0
M  V30 11 H -2.1484 2.1484 0.0000 0
M  V30 12 H -1.9531 -2.3438 0.0000 0
M  V30 13 H 0.9766 2.3438 0.0000 0
M  V30 14 H 2.9297 -1.3672 0.0000 0
M  V30 15 H 2.7344 0.9766 0.0000 0
M  V30 END ATOM
M  V30 BEGIN BOND
M  V30 1 2 1 2
M  V30 2 1 1 3
M  V30 3 1 1 10
M  V30 4 1 2 4
M  V30 5 1 2 12
M  V30 6 1 3 5
M  V30 7 1 3 11
M  V30 8 3 4 5
M  V30 9 1 4 8
M  V30 10 2 5 6
M  V30 11 1 6 9
M  V30 12 1 6 13
M  V30 13 1 7 8
M  V30 14 1 7 9
M  V30 15 1 7 14
M  V30 16 1 9 15
M  V30 END BOND
M  V30 END CTAB
M  END
>  <ID>
407
$$$$
Structure_408
Score 	 8.0, smilesprid 	smiles	 smilestrue 	smiles	 similartanimoto 	0	 similardice 	0

   15   16  0  0  0  0            999 V3000
M  V30 BEGIN CTAB
M  V30 COUNTS 15 16 0 0 0
M  V30 BEGIN ATOM
M  V30 1 C -2.5391 -0.1953 0.0000 0
M  V30 2 C -1.7578 -1.3672 0.0000 0
M  V30 3 C -1.7578 0.9766 0.0000 0
M  V30 4 C -0.3906 -0.7812 0.0000 0
M  V30 5 C -0.3906 0.5859 0.0000 0
M  V30 6 C 0.7812 1.1719 0.0000 0
M  V30 7 C 1.9531 -0.7812 0.0000 0
M  V30 8 N 0.7812 -1.5625 0.0000 0
M  V30 9 N 1.9531 0.3906 0.0000 0
M  V30 10 H -3.5156 -0.1953 0.0000 0
M  V30 11 H -2.1484 2.1484 0.0000 0
M  V30 12 H -1.9531 -2.3438 0.0000 0
M  V30 13 H 0.9766 2.3438 0.0000 0
M  V30 14 H 2.9297 -1.3672 0.0000 0
M  V30 15 H 2.7344 0.9766 0.0000 0
M  V30 END ATOM
M  V30 BEGIN BOND
M  V30 1 3 1 2
M  V30 2 1 1 3
M  V30 3 1 1 10
M  V30 4 1 2 4
M  V30 5 1 2 12
M  V30 6 1 3 5
M  V30 7 1 3 11
M  V30 8 3 4 5
M  V30 9 1 4 8
M  V30 10 2 5 6
M  V30 11 1 6 9
M  V30 12 1 6 13
M  V30 13 1 7 8
M  V30 14 1 7 9
M  V30 15 1 7 14
M  V30 16 1 9 15
M  V30 END BOND
M  V30 END CTAB
M  END
>  <ID>
408
$$$$
Structure_409
Score 	 6.0, smilesprid 	smiles	 smilestrue 	smiles	 similartanimoto 	0	 similardice 	0

   15   16  0  0  0  0            999 V3000
M  V30 BEGIN CTAB
M  V30 COUNTS 15 16 0 0 0
M  V30 BEGIN ATOM
M  V30 1 C -2.5391 -0.1953 0.0000 0
M  V30 2 C -1.7578 -1.3672 0.0000 0
M  V30 3 C -1.7578 0.9766 0.0000 0
M  V30 4 C -0.3906 -0.7812 0.0000 0
M  V30 5 C -0.3906 0.5859 0.0000 0
M  V30 6 C 0.7812 1.1719 0.0000 0
M  V30 7 C 1.9531 -0.7812 0.0000 0
M  V30 8 N 0.7812 -1.5625 0.0000 0
M  V30 9 N 1.9531 0.3906 0.0000 0
M  V30 10 H -3.5156 -0.1953 0.0000 0
M  V30 11 H -2.1484 2.1484 0.0000 0
M  V30 12 H -1.9531 -2.3438 0.0000 0
M  V30 13 H 0.9766 2.3438 0.0000 0
M  V30 14 H 2.9297 -1.3672 0.0000 0
M  V30 15 H 2.7344 0.9766 0.0000 0
M  V30 END ATOM
M  V30 BEGIN BOND
M  V30 1 1 1 2
M  V30 2 2 1 3
M  V30 3 1 1 10
M  V30 4 1 2 4
M  V30 5 1 2 12
M  V30 6 1 3 5
M  V30 7 1 3 11
M  V30 8 3 4 5
M  V30 9 1 4 8
M  V30 10 2 5 6
M  V30 11 1 6 9
M  V30 12 1 6 13
M  V30 13 1 7 8
M  V30 14 1 7 9
M  V30 15 1 7 14
M  V30 16 1 9 15
M  V30 END BOND
M  V30 END CTAB
M  END
>  <ID>
409
$$$$
Structure_410
Score 	 6.0, smilesprid 	smiles	 smilestrue 	smiles	 similartanimoto 	0	 similardice 	0

   15   16  0  0  0  0            999 V3000
M  V30 BEGIN CTAB
M  V30 COUNTS 15 16 0 0 0
M  V30 BEGIN ATOM
M  V30 1 C -2.5391 -0.1953 0.0000 0
M  V30 2 C -1.7578 -1.3672 0.0000 0
M  V30 3 C -1.7578 0.9766 0.0000 0
M  V30 4 C -0.3906 -0.7812 0.0000 0
M  V30 5 C -0.3906 0.5859 0.0000 0
M  V30 6 C 0.7812 1.1719 0.0000 0
M  V30 7 C 1.9531 -0.7812 0.0000 0
M  V30 8 N 0.7812 -1.5625 0.0000 0
M  V30 9 N 1.9531 0.3906 0.0000 0
M  V30 10 H -3.5156 -0.1953 0.0000 0
M  V30 11 H -2.1484 2.1484 0.0000 0
M  V30 12 H -1.9531 -2.3438 0.0000 0
M  V30 13 H 0.9766 2.3438 0.0000 0
M  V30 14 H 2.9297 -1.3672 0.0000 0
M  V30 15 H 2.7344 0.9766 0.0000 0
M  V30 END ATOM
M  V30 BEGIN BOND
M  V30 1 2 1 2
M  V30 2 2 1 3
M  V30 3 1 1 10
M  V30 4 1 2 4
M  V30 5 1 2 12
M  V30 6 1 3 5
M  V30 7 1 3 11
M  V30 8 3 4 5
M  V30 9 1 4 8
M  V30 10 2 5 6
M  V30 11 1 6 9
M  V30 12 1 6 13
M  V30 13 1 7 8
M  V30 14 1 7 9
M  V30 15 1 7 14
M  V30 16 1 9 15
M  V30 END BOND
M  V30 END CTAB
M  END
>  <ID>
410
$$$$
Structure_411
Score 	 8.0, smilesprid 	smiles	 smilestrue 	smiles	 similartanimoto 	0	 similardice 	0

   15   16  0  0  0  0            999 V3000
M  V30 BEGIN CTAB
M  V30 COUNTS 15 16 0 0 0
M  V30 BEGIN ATOM
M  V30 1 C -2.5391 -0.1953 0.0000 0
M  V30 2 C -1.7578 -1.3672 0.0000 0
M  V30 3 C -1.7578 0.9766 0.0000 0
M  V30 4 C -0.3906 -0.7812 0.0000 0
M  V30 5 C -0.3906 0.5859 0.0000 0
M  V30 6 C 0.7812 1.1719 0.0000 0
M  V30 7 C 1.9531 -0.7812 0.0000 0
M  V30 8 N 0.7812 -1.5625 0.0000 0
M  V30 9 N 1.9531 0.3906 0.0000 0
M  V30 10 H -3.5156 -0.1953 0.0000 0
M  V30 11 H -2.1484 2.1484 0.0000 0
M  V30 12 H -1.9531 -2.3438 0.0000 0
M  V30 13 H 0.9766 2.3438 0.0000 0
M  V30 14 H 2.9297 -1.3672 0.0000 0
M  V30 15 H 2.7344 0.9766 0.0000 0
M  V30 END ATOM
M  V30 BEGIN BOND
M  V30 1 3 1 2
M  V30 2 2 1 3
M  V30 3 1 1 10
M  V30 4 1 2 4
M  V30 5 1 2 12
M  V30 6 1 3 5
M  V30 7 1 3 11
M  V30 8 3 4 5
M  V30 9 1 4 8
M  V30 10 2 5 6
M  V30 11 1 6 9
M  V30 12 1 6 13
M  V30 13 1 7 8
M  V30 14 1 7 9
M  V30 15 1 7 14
M  V30 16 1 9 15
M  V30 END BOND
M  V30 END CTAB
M  END
>  <ID>
411
$$$$
Structure_412
Score 	 8.0, smilesprid 	smiles	 smilestrue 	smiles	 similartanimoto 	0	 similardice 	0

   15   16  0  0  0  0            999 V3000
M  V30 BEGIN CTAB
M  V30 COUNTS 15 16 0 0 0
M  V30 BEGIN ATOM
M  V30 1 C -2.5391 -0.1953 0.0000 0
M  V30 2 C -1.7578 -1.3672 0.0000 0
M  V30 3 C -1.7578 0.9766 0.0000 0
M  V30 4 C -0.3906 -0.7812 0.0000 0
M  V30 5 C -0.3906 0.5859 0.0000 0
M  V30 6 C 0.7812 1.1719 0.0000 0
M  V30 7 C 1.9531 -0.7812 0.0000 0
M  V30 8 N 0.7812 -1.5625 0.0000 0
M  V30 9 N 1.9531 0.3906 0.0000 0
M  V30 10 H -3.5156 -0.1953 0.0000 0
M  V30 11 H -2.1484 2.1484 0.0000 0
M  V30 12 H -1.9531 -2.3438 0.0000 0
M  V30 13 H 0.9766 2.3438 0.0000 0
M  V30 14 H 2.9297 -1.3672 0.0000 0
M  V30 15 H 2.7344 0.9766 0.0000 0
M  V30 END ATOM
M  V30 BEGIN BOND
M  V30 1 1 1 2
M  V30 2 3 1 3
M  V30 3 1 1 10
M  V30 4 1 2 4
M  V30 5 1 2 12
M  V30 6 1 3 5
M  V30 7 1 3 11
M  V30 8 3 4 5
M  V30 9 1 4 8
M  V30 10 2 5 6
M  V30 11 1 6 9
M  V30 12 1 6 13
M  V30 13 1 7 8
M  V30 14 1 7 9
M  V30 15 1 7 14
M  V30 16 1 9 15
M  V30 END BOND
M  V30 END CTAB
M  END
>  <ID>
412
$$$$
Structure_413
Score 	 8.0, smilesprid 	smiles	 smilestrue 	smiles	 similartanimoto 	0	 similardice 	0

   15   16  0  0  0  0            999 V3000
M  V30 BEGIN CTAB
M  V30 COUNTS 15 16 0 0 0
M  V30 BEGIN ATOM
M  V30 1 C -2.5391 -0.1953 0.0000 0
M  V30 2 C -1.7578 -1.3672 0.0000 0
M  V30 3 C -1.7578 0.9766 0.0000 0
M  V30 4 C -0.3906 -0.7812 0.0000 0
M  V30 5 C -0.3906 0.5859 0.0000 0
M  V30 6 C 0.7812 1.1719 0.0000 0
M  V30 7 C 1.9531 -0.7812 0.0000 0
M  V30 8 N 0.7812 -1.5625 0.0000 0
M  V30 9 N 1.9531 0.3906 0.0000 0
M  V30 10 H -3.5156 -0.1953 0.0000 0
M  V30 11 H -2.1484 2.1484 0.0000 0
M  V30 12 H -1.9531 -2.3438 0.0000 0
M  V30 13 H 0.9766 2.3438 0.0000 0
M  V30 14 H 2.9297 -1.3672 0.0000 0
M  V30 15 H 2.7344 0.9766 0.0000 0
M  V30 END ATOM
M  V30 BEGIN BOND
M  V30 1 2 1 2
M  V30 2 3 1 3
M  V30 3 1 1 10
M  V30 4 1 2 4
M  V30 5 1 2 12
M  V30 6 1 3 5
M  V30 7 1 3 11
M  V30 8 3 4 5
M  V30 9 1 4 8
M  V30 10 2 5 6
M  V30 11 1 6 9
M  V30 12 1 6 13
M  V30 13 1 7 8
M  V30 14 1 7 9
M  V30 15 1 7 14
M  V30 16 1 9 15
M  V30 END BOND
M  V30 END CTAB
M  END
>  <ID>
413
$$$$
Structure_414
Score 	 10.0, smilesprid 	smiles	 smilestrue 	smiles	 similartanimoto 	0	 similardice 	0

   15   16  0  0  0  0            999 V3000
M  V30 BEGIN CTAB
M  V30 COUNTS 15 16 0 0 0
M  V30 BEGIN ATOM
M  V30 1 C -2.5391 -0.1953 0.0000 0
M  V30 2 C -1.7578 -1.3672 0.0000 0
M  V30 3 C -1.7578 0.9766 0.0000 0
M  V30 4 C -0.3906 -0.7812 0.0000 0
M  V30 5 C -0.3906 0.5859 0.0000 0
M  V30 6 C 0.7812 1.1719 0.0000 0
M  V30 7 C 1.9531 -0.7812 0.0000 0
M  V30 8 N 0.7812 -1.5625 0.0000 0
M  V30 9 N 1.9531 0.3906 0.0000 0
M  V30 10 H -3.5156 -0.1953 0.0000 0
M  V30 11 H -2.1484 2.1484 0.0000 0
M  V30 12 H -1.9531 -2.3438 0.0000 0
M  V30 13 H 0.9766 2.3438 0.0000 0
M  V30 14 H 2.9297 -1.3672 0.0000 0
M  V30 15 H 2.7344 0.9766 0.0000 0
M  V30 END ATOM
M  V30 BEGIN BOND
M  V30 1 3 1 2
M  V30 2 3 1 3
M  V30 3 1 1 10
M  V30 4 1 2 4
M  V30 5 1 2 12
M  V30 6 1 3 5
M  V30 7 1 3 11
M  V30 8 3 4 5
M  V30 9 1 4 8
M  V30 10 2 5 6
M  V30 11 1 6 9
M  V30 12 1 6 13
M  V30 13 1 7 8
M  V30 14 1 7 9
M  V30 15 1 7 14
M  V30 16 1 9 15
M  V30 END BOND
M  V30 END CTAB
M  END
>  <ID>
414
$$$$
Structure_415
Score 	 8.0, smilesprid 	smiles	 smilestrue 	smiles	 similartanimoto 	0	 similardice 	0

   15   16  0  0  0  0            999 V3000
M  V30 BEGIN CTAB
M  V30 COUNTS 15 16 0 0 0
M  V30 BEGIN ATOM
M  V30 1 C -2.5391 -0.1953 0.0000 0
M  V30 2 C -1.7578 -1.3672 0.0000 0
M  V30 3 C -1.7578 0.9766 0.0000 0
M  V30 4 C -0.3906 -0.7812 0.0000 0
M  V30 5 C -0.3906 0.5859 0.0000 0
M  V30 6 C 0.7812 1.1719 0.0000 0
M  V30 7 C 1.9531 -0.7812 0.0000 0
M  V30 8 N 0.7812 -1.5625 0.0000 0
M  V30 9 N 1.9531 0.3906 0.0000 0
M  V30 10 H -3.5156 -0.1953 0.0000 0
M  V30 11 H -2.1484 2.1484 0.0000 0
M  V30 12 H -1.9531 -2.3438 0.0000 0
M  V30 13 H 0.9766 2.3438 0.0000 0
M  V30 14 H 2.9297 -1.3672 0.0000 0
M  V30 15 H 2.7344 0.9766 0.0000 0
M  V30 END ATOM
M  V30 BEGIN BOND
M  V30 1 1 1 2
M  V30 2 1 1 3
M  V30 3 1 1 10
M  V30 4 1 2 4
M  V30 5 1 2 12
M  V30 6 2 3 5
M  V30 7 1 3 11
M  V30 8 3 4 5
M  V30 9 1 4 8
M  V30 10 2 5 6
M  V30 11 1 6 9
M  V30 12 1 6 13
M  V30 13 1 7 8
M  V30 14 1 7 9
M  V30 15 1 7 14
M  V30 16 1 9 15
M  V30 END BOND
M  V30 END CTAB
M  END
>  <ID>
415
$$$$
Structure_416
Score 	 6.0, smilesprid 	smiles	 smilestrue 	smiles	 similartanimoto 	0	 similardice 	0

   15   16  0  0  0  0            999 V3000
M  V30 BEGIN CTAB
M  V30 COUNTS 15 16 0 0 0
M  V30 BEGIN ATOM
M  V30 1 C -2.5391 -0.1953 0.0000 0
M  V30 2 C -1.7578 -1.3672 0.0000 0
M  V30 3 C -1.7578 0.9766 0.0000 0
M  V30 4 C -0.3906 -0.7812 0.0000 0
M  V30 5 C -0.3906 0.5859 0.0000 0
M  V30 6 C 0.7812 1.1719 0.0000 0
M  V30 7 C 1.9531 -0.7812 0.0000 0
M  V30 8 N 0.7812 -1.5625 0.0000 0
M  V30 9 N 1.9531 0.3906 0.0000 0
M  V30 10 H -3.5156 -0.1953 0.0000 0
M  V30 11 H -2.1484 2.1484 0.0000 0
M  V30 12 H -1.9531 -2.3438 0.0000 0
M  V30 13 H 0.9766 2.3438 0.0000 0
M  V30 14 H 2.9297 -1.3672 0.0000 0
M  V30 15 H 2.7344 0.9766 0.0000 0
M  V30 END ATOM
M  V30 BEGIN BOND
M  V30 1 2 1 2
M  V30 2 1 1 3
M  V30 3 1 1 10
M  V30 4 1 2 4
M  V30 5 1 2 12
M  V30 6 2 3 5
M  V30 7 1 3 11
M  V30 8 3 4 5
M  V30 9 1 4 8
M  V30 10 2 5 6
M  V30 11 1 6 9
M  V30 12 1 6 13
M  V30 13 1 7 8
M  V30 14 1 7 9
M  V30 15 1 7 14
M  V30 16 1 9 15
M  V30 END BOND
M  V30 END CTAB
M  END
>  <ID>
416
$$$$
Structure_417
Score 	 8.0, smilesprid 	smiles	 smilestrue 	smiles	 similartanimoto 	0	 similardice 	0

   15   16  0  0  0  0            999 V3000
M  V30 BEGIN CTAB
M  V30 COUNTS 15 16 0 0 0
M  V30 BEGIN ATOM
M  V30 1 C -2.5391 -0.1953 0.0000 0
M  V30 2 C -1.7578 -1.3672 0.0000 0
M  V30 3 C -1.7578 0.9766 0.0000 0
M  V30 4 C -0.3906 -0.7812 0.0000 0
M  V30 5 C -0.3906 0.5859 0.0000 0
M  V30 6 C 0.7812 1.1719 0.0000 0
M  V30 7 C 1.9531 -0.7812 0.0000 0
M  V30 8 N 0.7812 -1.5625 0.0000 0
M  V30 9 N 1.9531 0.3906 0.0000 0
M  V30 10 H -3.5156 -0.1953 0.0000 0
M  V30 11 H -2.1484 2.1484 0.0000 0
M  V30 12 H -1.9531 -2.3438 0.0000 0
M  V30 13 H 0.9766 2.3438 0.0000 0
M  V30 14 H 2.9297 -1.3672 0.0000 0
M  V30 15 H 2.7344 0.9766 0.0000 0
M  V30 END ATOM
M  V30 BEGIN BOND
M  V30 1 3 1 2
M  V30 2 1 1 3
M  V30 3 1 1 10
M  V30 4 1 2 4
M  V30 5 1 2 12
M  V30 6 2 3 5
M  V30 7 1 3 11
M  V30 8 3 4 5
M  V30 9 1 4 8
M  V30 10 2 5 6
M  V30 11 1 6 9
M  V30 12 1 6 13
M  V30 13 1 7 8
M  V30 14 1 7 9
M  V30 15 1 7 14
M  V30 16 1 9 15
M  V30 END BOND
M  V30 END CTAB
M  END
>  <ID>
417
$$$$
Structure_418
Score 	 8.0, smilesprid 	smiles	 smilestrue 	smiles	 similartanimoto 	0	 similardice 	0

   15   16  0  0  0  0            999 V3000
M  V30 BEGIN CTAB
M  V30 COUNTS 15 16 0 0 0
M  V30 BEGIN ATOM
M  V30 1 C -2.5391 -0.1953 0.0000 0
M  V30 2 C -1.7578 -1.3672 0.0000 0
M  V30 3 C -1.7578 0.9766 0.0000 0
M  V30 4 C -0.3906 -0.7812 0.0000 0
M  V30 5 C -0.3906 0.5859 0.0000 0
M  V30 6 C 0.7812 1.1719 0.0000 0
M  V30 7 C 1.9531 -0.7812 0.0000 0
M  V30 8 N 0.7812 -1.5625 0.0000 0
M  V30 9 N 1.9531 0.3906 0.0000 0
M  V30 10 H -3.5156 -0.1953 0.0000 0
M  V30 11 H -2.1484 2.1484 0.0000 0
M  V30 12 H -1.9531 -2.3438 0.0000 0
M  V30 13 H 0.9766 2.3438 0.0000 0
M  V30 14 H 2.9297 -1.3672 0.0000 0
M  V30 15 H 2.7344 0.9766 0.0000 0
M  V30 END ATOM
M  V30 BEGIN BOND
M  V30 1 1 1 2
M  V30 2 2 1 3
M  V30 3 1 1 10
M  V30 4 1 2 4
M  V30 5 1 2 12
M  V30 6 2 3 5
M  V30 7 1 3 11
M  V30 8 3 4 5
M  V30 9 1 4 8
M  V30 10 2 5 6
M  V30 11 1 6 9
M  V30 12 1 6 13
M  V30 13 1 7 8
M  V30 14 1 7 9
M  V30 15 1 7 14
M  V30 16 1 9 15
M  V30 END BOND
M  V30 END CTAB
M  END
>  <ID>
418
$$$$
Structure_419
Score 	 8.0, smilesprid 	smiles	 smilestrue 	smiles	 similartanimoto 	0	 similardice 	0

   15   16  0  0  0  0            999 V3000
M  V30 BEGIN CTAB
M  V30 COUNTS 15 16 0 0 0
M  V30 BEGIN ATOM
M  V30 1 C -2.5391 -0.1953 0.0000 0
M  V30 2 C -1.7578 -1.3672 0.0000 0
M  V30 3 C -1.7578 0.9766 0.0000 0
M  V30 4 C -0.3906 -0.7812 0.0000 0
M  V30 5 C -0.3906 0.5859 0.0000 0
M  V30 6 C 0.7812 1.1719 0.0000 0
M  V30 7 C 1.9531 -0.7812 0.0000 0
M  V30 8 N 0.7812 -1.5625 0.0000 0
M  V30 9 N 1.9531 0.3906 0.0000 0
M  V30 10 H -3.5156 -0.1953 0.0000 0
M  V30 11 H -2.1484 2.1484 0.0000 0
M  V30 12 H -1.9531 -2.3438 0.0000 0
M  V30 13 H 0.9766 2.3438 0.0000 0
M  V30 14 H 2.9297 -1.3672 0.0000 0
M  V30 15 H 2.7344 0.9766 0.0000 0
M  V30 END ATOM
M  V30 BEGIN BOND
M  V30 1 2 1 2
M  V30 2 2 1 3
M  V30 3 1 1 10
M  V30 4 1 2 4
M  V30 5 1 2 12
M  V30 6 2 3 5
M  V30 7 1 3 11
M  V30 8 3 4 5
M  V30 9 1 4 8
M  V30 10 2 5 6
M  V30 11 1 6 9
M  V30 12 1 6 13
M  V30 13 1 7 8
M  V30 14 1 7 9
M  V30 15 1 7 14
M  V30 16 1 9 15
M  V30 END BOND
M  V30 END CTAB
M  END
>  <ID>
419
$$$$
Structure_420
Score 	 10.0, smilesprid 	smiles	 smilestrue 	smiles	 similartanimoto 	0	 similardice 	0

   15   16  0  0  0  0            999 V3000
M  V30 BEGIN CTAB
M  V30 COUNTS 15 16 0 0 0
M  V30 BEGIN ATOM
M  V30 1 C -2.5391 -0.1953 0.0000 0
M  V30 2 C -1.7578 -1.3672 0.0000 0
M  V30 3 C -1.7578 0.9766 0.0000 0
M  V30 4 C -0.3906 -0.7812 0.0000 0
M  V30 5 C -0.3906 0.5859 0.0000 0
M  V30 6 C 0.7812 1.1719 0.0000 0
M  V30 7 C 1.9531 -0.7812 0.0000 0
M  V30 8 N 0.7812 -1.5625 0.0000 0
M  V30 9 N 1.9531 0.3906 0.0000 0
M  V30 10 H -3.5156 -0.1953 0.0000 0
M  V30 11 H -2.1484 2.1484 0.0000 0
M  V30 12 H -1.9531 -2.3438 0.0000 0
M  V30 13 H 0.9766 2.3438 0.0000 0
M  V30 14 H 2.9297 -1.3672 0.0000 0
M  V30 15 H 2.7344 0.9766 0.0000 0
M  V30 END ATOM
M  V30 BEGIN BOND
M  V30 1 3 1 2
M  V30 2 2 1 3
M  V30 3 1 1 10
M  V30 4 1 2 4
M  V30 5 1 2 12
M  V30 6 2 3 5
M  V30 7 1 3 11
M  V30 8 3 4 5
M  V30 9 1 4 8
M  V30 10 2 5 6
M  V30 11 1 6 9
M  V30 12 1 6 13
M  V30 13 1 7 8
M  V30 14 1 7 9
M  V30 15 1 7 14
M  V30 16 1 9 15
M  V30 END BOND
M  V30 END CTAB
M  END
>  <ID>
420
$$$$
Structure_421
Score 	 10.0, smilesprid 	smiles	 smilestrue 	smiles	 similartanimoto 	0	 similardice 	0

   15   16  0  0  0  0            999 V3000
M  V30 BEGIN CTAB
M  V30 COUNTS 15 16 0 0 0
M  V30 BEGIN ATOM
M  V30 1 C -2.5391 -0.1953 0.0000 0
M  V30 2 C -1.7578 -1.3672 0.0000 0
M  V30 3 C -1.7578 0.9766 0.0000 0
M  V30 4 C -0.3906 -0.7812 0.0000 0
M  V30 5 C -0.3906 0.5859 0.0000 0
M  V30 6 C 0.7812 1.1719 0.0000 0
M  V30 7 C 1.9531 -0.7812 0.0000 0
M  V30 8 N 0.7812 -1.5625 0.0000 0
M  V30 9 N 1.9531 0.3906 0.0000 0
M  V30 10 H -3.5156 -0.1953 0.0000 0
M  V30 11 H -2.1484 2.1484 0.0000 0
M  V30 12 H -1.9531 -2.3438 0.0000 0
M  V30 13 H 0.9766 2.3438 0.0000 0
M  V30 14 H 2.9297 -1.3672 0.0000 0
M  V30 15 H 2.7344 0.9766 0.0000 0
M  V30 END ATOM
M  V30 BEGIN BOND
M  V30 1 1 1 2
M  V30 2 3 1 3
M  V30 3 1 1 10
M  V30 4 1 2 4
M  V30 5 1 2 12
M  V30 6 2 3 5
M  V30 7 1 3 11
M  V30 8 3 4 5
M  V30 9 1 4 8
M  V30 10 2 5 6
M  V30 11 1 6 9
M  V30 12 1 6 13
M  V30 13 1 7 8
M  V30 14 1 7 9
M  V30 15 1 7 14
M  V30 16 1 9 15
M  V30 END BOND
M  V30 END CTAB
M  END
>  <ID>
421
$$$$
Structure_422
Score 	 10.0, smilesprid 	smiles	 smilestrue 	smiles	 similartanimoto 	0	 similardice 	0

   15   16  0  0  0  0            999 V3000
M  V30 BEGIN CTAB
M  V30 COUNTS 15 16 0 0 0
M  V30 BEGIN ATOM
M  V30 1 C -2.5391 -0.1953 0.0000 0
M  V30 2 C -1.7578 -1.3672 0.0000 0
M  V30 3 C -1.7578 0.9766 0.0000 0
M  V30 4 C -0.3906 -0.7812 0.0000 0
M  V30 5 C -0.3906 0.5859 0.0000 0
M  V30 6 C 0.7812 1.1719 0.0000 0
M  V30 7 C 1.9531 -0.7812 0.0000 0
M  V30 8 N 0.7812 -1.5625 0.0000 0
M  V30 9 N 1.9531 0.3906 0.0000 0
M  V30 10 H -3.5156 -0.1953 0.0000 0
M  V30 11 H -2.1484 2.1484 0.0000 0
M  V30 12 H -1.9531 -2.3438 0.0000 0
M  V30 13 H 0.9766 2.3438 0.0000 0
M  V30 14 H 2.9297 -1.3672 0.0000 0
M  V30 15 H 2.7344 0.9766 0.0000 0
M  V30 END ATOM
M  V30 BEGIN BOND
M  V30 1 2 1 2
M  V30 2 3 1 3
M  V30 3 1 1 10
M  V30 4 1 2 4
M  V30 5 1 2 12
M  V30 6 2 3 5
M  V30 7 1 3 11
M  V30 8 3 4 5
M  V30 9 1 4 8
M  V30 10 2 5 6
M  V30 11 1 6 9
M  V30 12 1 6 13
M  V30 13 1 7 8
M  V30 14 1 7 9
M  V30 15 1 7 14
M  V30 16 1 9 15
M  V30 END BOND
M  V30 END CTAB
M  END
>  <ID>
422
$$$$
Structure_423
Score 	 12.0, smilesprid 	smiles	 smilestrue 	smiles	 similartanimoto 	0	 similardice 	0

   15   16  0  0  0  0            999 V3000
M  V30 BEGIN CTAB
M  V30 COUNTS 15 16 0 0 0
M  V30 BEGIN ATOM
M  V30 1 C -2.5391 -0.1953 0.0000 0
M  V30 2 C -1.7578 -1.3672 0.0000 0
M  V30 3 C -1.7578 0.9766 0.0000 0
M  V30 4 C -0.3906 -0.7812 0.0000 0
M  V30 5 C -0.3906 0.5859 0.0000 0
M  V30 6 C 0.7812 1.1719 0.0000 0
M  V30 7 C 1.9531 -0.7812 0.0000 0
M  V30 8 N 0.7812 -1.5625 0.0000 0
M  V30 9 N 1.9531 0.3906 0.0000 0
M  V30 10 H -3.5156 -0.1953 0.0000 0
M  V30 11 H -2.1484 2.1484 0.0000 0
M  V30 12 H -1.9531 -2.3438 0.0000 0
M  V30 13 H 0.9766 2.3438 0.0000 0
M  V30 14 H 2.9297 -1.3672 0.0000 0
M  V30 15 H 2.7344 0.9766 0.0000 0
M  V30 END ATOM
M  V30 BEGIN BOND
M  V30 1 3 1 2
M  V30 2 3 1 3
M  V30 3 1 1 10
M  V30 4 1 2 4
M  V30 5 1 2 12
M  V30 6 2 3 5
M  V30 7 1 3 11
M  V30 8 3 4 5
M  V30 9 1 4 8
M  V30 10 2 5 6
M  V30 11 1 6 9
M  V30 12 1 6 13
M  V30 13 1 7 8
M  V30 14 1 7 9
M  V30 15 1 7 14
M  V30 16 1 9 15
M  V30 END BOND
M  V30 END CTAB
M  END
>  <ID>
423
$$$$
Structure_424
Score 	 10.0, smilesprid 	smiles	 smilestrue 	smiles	 similartanimoto 	0	 similardice 	0

   15   16  0  0  0  0            999 V3000
M  V30 BEGIN CTAB
M  V30 COUNTS 15 16 0 0 0
M  V30 BEGIN ATOM
M  V30 1 C -2.5391 -0.1953 0.0000 0
M  V30 2 C -1.7578 -1.3672 0.0000 0
M  V30 3 C -1.7578 0.9766 0.0000 0
M  V30 4 C -0.3906 -0.7812 0.0000 0
M  V30 5 C -0.3906 0.5859 0.0000 0
M  V30 6 C 0.7812 1.1719 0.0000 0
M  V30 7 C 1.9531 -0.7812 0.0000 0
M  V30 8 N 0.7812 -1.5625 0.0000 0
M  V30 9 N 1.9531 0.3906 0.0000 0
M  V30 10 H -3.5156 -0.1953 0.0000 0
M  V30 11 H -2.1484 2.1484 0.0000 0
M  V30 12 H -1.9531 -2.3438 0.0000 0
M  V30 13 H 0.9766 2.3438 0.0000 0
M  V30 14 H 2.9297 -1.3672 0.0000 0
M  V30 15 H 2.7344 0.9766 0.0000 0
M  V30 END ATOM
M  V30 BEGIN BOND
M  V30 1 1 1 2
M  V30 2 1 1 3
M  V30 3 1 1 10
M  V30 4 1 2 4
M  V30 5 1 2 12
M  V30 6 3 3 5
M  V30 7 1 3 11
M  V30 8 3 4 5
M  V30 9 1 4 8
M  V30 10 2 5 6
M  V30 11 1 6 9
M  V30 12 1 6 13
M  V30 13 1 7 8
M  V30 14 1 7 9
M  V30 15 1 7 14
M  V30 16 1 9 15
M  V30 END BOND
M  V30 END CTAB
M  END
>  <ID>
424
$$$$
Structure_425
Score 	 8.0, smilesprid 	smiles	 smilestrue 	smiles	 similartanimoto 	0	 similardice 	0

   15   16  0  0  0  0            999 V3000
M  V30 BEGIN CTAB
M  V30 COUNTS 15 16 0 0 0
M  V30 BEGIN ATOM
M  V30 1 C -2.5391 -0.1953 0.0000 0
M  V30 2 C -1.7578 -1.3672 0.0000 0
M  V30 3 C -1.7578 0.9766 0.0000 0
M  V30 4 C -0.3906 -0.7812 0.0000 0
M  V30 5 C -0.3906 0.5859 0.0000 0
M  V30 6 C 0.7812 1.1719 0.0000 0
M  V30 7 C 1.9531 -0.7812 0.0000 0
M  V30 8 N 0.7812 -1.5625 0.0000 0
M  V30 9 N 1.9531 0.3906 0.0000 0
M  V30 10 H -3.5156 -0.1953 0.0000 0
M  V30 11 H -2.1484 2.1484 0.0000 0
M  V30 12 H -1.9531 -2.3438 0.0000 0
M  V30 13 H 0.9766 2.3438 0.0000 0
M  V30 14 H 2.9297 -1.3672 0.0000 0
M  V30 15 H 2.7344 0.9766 0.0000 0
M  V30 END ATOM
M  V30 BEGIN BOND
M  V30 1 2 1 2
M  V30 2 1 1 3
M  V30 3 1 1 10
M  V30 4 1 2 4
M  V30 5 1 2 12
M  V30 6 3 3 5
M  V30 7 1 3 11
M  V30 8 3 4 5
M  V30 9 1 4 8
M  V30 10 2 5 6
M  V30 11 1 6 9
M  V30 12 1 6 13
M  V30 13 1 7 8
M  V30 14 1 7 9
M  V30 15 1 7 14
M  V30 16 1 9 15
M  V30 END BOND
M  V30 END CTAB
M  END
>  <ID>
425
$$$$
Structure_426
Score 	 10.0, smilesprid 	smiles	 smilestrue 	smiles	 similartanimoto 	0	 similardice 	0

   15   16  0  0  0  0            999 V3000
M  V30 BEGIN CTAB
M  V30 COUNTS 15 16 0 0 0
M  V30 BEGIN ATOM
M  V30 1 C -2.5391 -0.1953 0.0000 0
M  V30 2 C -1.7578 -1.3672 0.0000 0
M  V30 3 C -1.7578 0.9766 0.0000 0
M  V30 4 C -0.3906 -0.7812 0.0000 0
M  V30 5 C -0.3906 0.5859 0.0000 0
M  V30 6 C 0.7812 1.1719 0.0000 0
M  V30 7 C 1.9531 -0.7812 0.0000 0
M  V30 8 N 0.7812 -1.5625 0.0000 0
M  V30 9 N 1.9531 0.3906 0.0000 0
M  V30 10 H -3.5156 -0.1953 0.0000 0
M  V30 11 H -2.1484 2.1484 0.0000 0
M  V30 12 H -1.9531 -2.3438 0.0000 0
M  V30 13 H 0.9766 2.3438 0.0000 0
M  V30 14 H 2.9297 -1.3672 0.0000 0
M  V30 15 H 2.7344 0.9766 0.0000 0
M  V30 END ATOM
M  V30 BEGIN BOND
M  V30 1 3 1 2
M  V30 2 1 1 3
M  V30 3 1 1 10
M  V30 4 1 2 4
M  V30 5 1 2 12
M  V30 6 3 3 5
M  V30 7 1 3 11
M  V30 8 3 4 5
M  V30 9 1 4 8
M  V30 10 2 5 6
M  V30 11 1 6 9
M  V30 12 1 6 13
M  V30 13 1 7 8
M  V30 14 1 7 9
M  V30 15 1 7 14
M  V30 16 1 9 15
M  V30 END BOND
M  V30 END CTAB
M  END
>  <ID>
426
$$$$
Structure_427
Score 	 10.0, smilesprid 	smiles	 smilestrue 	smiles	 similartanimoto 	0	 similardice 	0

   15   16  0  0  0  0            999 V3000
M  V30 BEGIN CTAB
M  V30 COUNTS 15 16 0 0 0
M  V30 BEGIN ATOM
M  V30 1 C -2.5391 -0.1953 0.0000 0
M  V30 2 C -1.7578 -1.3672 0.0000 0
M  V30 3 C -1.7578 0.9766 0.0000 0
M  V30 4 C -0.3906 -0.7812 0.0000 0
M  V30 5 C -0.3906 0.5859 0.0000 0
M  V30 6 C 0.7812 1.1719 0.0000 0
M  V30 7 C 1.9531 -0.7812 0.0000 0
M  V30 8 N 0.7812 -1.5625 0.0000 0
M  V30 9 N 1.9531 0.3906 0.0000 0
M  V30 10 H -3.5156 -0.1953 0.0000 0
M  V30 11 H -2.1484 2.1484 0.0000 0
M  V30 12 H -1.9531 -2.3438 0.0000 0
M  V30 13 H 0.9766 2.3438 0.0000 0
M  V30 14 H 2.9297 -1.3672 0.0000 0
M  V30 15 H 2.7344 0.9766 0.0000 0
M  V30 END ATOM
M  V30 BEGIN BOND
M  V30 1 1 1 2
M  V30 2 2 1 3
M  V30 3 1 1 10
M  V30 4 1 2 4
M  V30 5 1 2 12
M  V30 6 3 3 5
M  V30 7 1 3 11
M  V30 8 3 4 5
M  V30 9 1 4 8
M  V30 10 2 5 6
M  V30 11 1 6 9
M  V30 12 1 6 13
M  V30 13 1 7 8
M  V30 14 1 7 9
M  V30 15 1 7 14
M  V30 16 1 9 15
M  V30 END BOND
M  V30 END CTAB
M  END
>  <ID>
427
$$$$
Structure_428
Score 	 10.0, smilesprid 	smiles	 smilestrue 	smiles	 similartanimoto 	0	 similardice 	0

   15   16  0  0  0  0            999 V3000
M  V30 BEGIN CTAB
M  V30 COUNTS 15 16 0 0 0
M  V30 BEGIN ATOM
M  V30 1 C -2.5391 -0.1953 0.0000 0
M  V30 2 C -1.7578 -1.3672 0.0000 0
M  V30 3 C -1.7578 0.9766 0.0000 0
M  V30 4 C -0.3906 -0.7812 0.0000 0
M  V30 5 C -0.3906 0.5859 0.0000 0
M  V30 6 C 0.7812 1.1719 0.0000 0
M  V30 7 C 1.9531 -0.7812 0.0000 0
M  V30 8 N 0.7812 -1.5625 0.0000 0
M  V30 9 N 1.9531 0.3906 0.0000 0
M  V30 10 H -3.5156 -0.1953 0.0000 0
M  V30 11 H -2.1484 2.1484 0.0000 0
M  V30 12 H -1.9531 -2.3438 0.0000 0
M  V30 13 H 0.9766 2.3438 0.0000 0
M  V30 14 H 2.9297 -1.3672 0.0000 0
M  V30 15 H 2.7344 0.9766 0.0000 0
M  V30 END ATOM
M  V30 BEGIN BOND
M  V30 1 2 1 2
M  V30 2 2 1 3
M  V30 3 1 1 10
M  V30 4 1 2 4
M  V30 5 1 2 12
M  V30 6 3 3 5
M  V30 7 1 3 11
M  V30 8 3 4 5
M  V30 9 1 4 8
M  V30 10 2 5 6
M  V30 11 1 6 9
M  V30 12 1 6 13
M  V30 13 1 7 8
M  V30 14 1 7 9
M  V30 15 1 7 14
M  V30 16 1 9 15
M  V30 END BOND
M  V30 END CTAB
M  END
>  <ID>
428
$$$$
Structure_429
Score 	 12.0, smilesprid 	smiles	 smilestrue 	smiles	 similartanimoto 	0	 similardice 	0

   15   16  0  0  0  0            999 V3000
M  V30 BEGIN CTAB
M  V30 COUNTS 15 16 0 0 0
M  V30 BEGIN ATOM
M  V30 1 C -2.5391 -0.1953 0.0000 0
M  V30 2 C -1.7578 -1.3672 0.0000 0
M  V30 3 C -1.7578 0.9766 0.0000 0
M  V30 4 C -0.3906 -0.7812 0.0000 0
M  V30 5 C -0.3906 0.5859 0.0000 0
M  V30 6 C 0.7812 1.1719 0.0000 0
M  V30 7 C 1.9531 -0.7812 0.0000 0
M  V30 8 N 0.7812 -1.5625 0.0000 0
M  V30 9 N 1.9531 0.3906 0.0000 0
M  V30 10 H -3.5156 -0.1953 0.0000 0
M  V30 11 H -2.1484 2.1484 0.0000 0
M  V30 12 H -1.9531 -2.3438 0.0000 0
M  V30 13 H 0.9766 2.3438 0.0000 0
M  V30 14 H 2.9297 -1.3672 0.0000 0
M  V30 15 H 2.7344 0.9766 0.0000 0
M  V30 END ATOM
M  V30 BEGIN BOND
M  V30 1 3 1 2
M  V30 2 2 1 3
M  V30 3 1 1 10
M  V30 4 1 2 4
M  V30 5 1 2 12
M  V30 6 3 3 5
M  V30 7 1 3 11
M  V30 8 3 4 5
M  V30 9 1 4 8
M  V30 10 2 5 6
M  V30 11 1 6 9
M  V30 12 1 6 13
M  V30 13 1 7 8
M  V30 14 1 7 9
M  V30 15 1 7 14
M  V30 16 1 9 15
M  V30 END BOND
M  V30 END CTAB
M  END
>  <ID>
429
$$$$
Structure_430
Score 	 12.0, smilesprid 	smiles	 smilestrue 	smiles	 similartanimoto 	0	 similardice 	0

   15   16  0  0  0  0            999 V3000
M  V30 BEGIN CTAB
M  V30 COUNTS 15 16 0 0 0
M  V30 BEGIN ATOM
M  V30 1 C -2.5391 -0.1953 0.0000 0
M  V30 2 C -1.7578 -1.3672 0.0000 0
M  V30 3 C -1.7578 0.9766 0.0000 0
M  V30 4 C -0.3906 -0.7812 0.0000 0
M  V30 5 C -0.3906 0.5859 0.0000 0
M  V30 6 C 0.7812 1.1719 0.0000 0
M  V30 7 C 1.9531 -0.7812 0.0000 0
M  V30 8 N 0.7812 -1.5625 0.0000 0
M  V30 9 N 1.9531 0.3906 0.0000 0
M  V30 10 H -3.5156 -0.1953 0.0000 0
M  V30 11 H -2.1484 2.1484 0.0000 0
M  V30 12 H -1.9531 -2.3438 0.0000 0
M  V30 13 H 0.9766 2.3438 0.0000 0
M  V30 14 H 2.9297 -1.3672 0.0000 0
M  V30 15 H 2.7344 0.9766 0.0000 0
M  V30 END ATOM
M  V30 BEGIN BOND
M  V30 1 1 1 2
M  V30 2 3 1 3
M  V30 3 1 1 10
M  V30 4 1 2 4
M  V30 5 1 2 12
M  V30 6 3 3 5
M  V30 7 1 3 11
M  V30 8 3 4 5
M  V30 9 1 4 8
M  V30 10 2 5 6
M  V30 11 1 6 9
M  V30 12 1 6 13
M  V30 13 1 7 8
M  V30 14 1 7 9
M  V30 15 1 7 14
M  V30 16 1 9 15
M  V30 END BOND
M  V30 END CTAB
M  END
>  <ID>
430
$$$$
Structure_431
Score 	 12.0, smilesprid 	smiles	 smilestrue 	smiles	 similartanimoto 	0	 similardice 	0

   15   16  0  0  0  0            999 V3000
M  V30 BEGIN CTAB
M  V30 COUNTS 15 16 0 0 0
M  V30 BEGIN ATOM
M  V30 1 C -2.5391 -0.1953 0.0000 0
M  V30 2 C -1.7578 -1.3672 0.0000 0
M  V30 3 C -1.7578 0.9766 0.0000 0
M  V30 4 C -0.3906 -0.7812 0.0000 0
M  V30 5 C -0.3906 0.5859 0.0000 0
M  V30 6 C 0.7812 1.1719 0.0000 0
M  V30 7 C 1.9531 -0.7812 0.0000 0
M  V30 8 N 0.7812 -1.5625 0.0000 0
M  V30 9 N 1.9531 0.3906 0.0000 0
M  V30 10 H -3.5156 -0.1953 0.0000 0
M  V30 11 H -2.1484 2.1484 0.0000 0
M  V30 12 H -1.9531 -2.3438 0.0000 0
M  V30 13 H 0.9766 2.3438 0.0000 0
M  V30 14 H 2.9297 -1.3672 0.0000 0
M  V30 15 H 2.7344 0.9766 0.0000 0
M  V30 END ATOM
M  V30 BEGIN BOND
M  V30 1 2 1 2
M  V30 2 3 1 3
M  V30 3 1 1 10
M  V30 4 1 2 4
M  V30 5 1 2 12
M  V30 6 3 3 5
M  V30 7 1 3 11
M  V30 8 3 4 5
M  V30 9 1 4 8
M  V30 10 2 5 6
M  V30 11 1 6 9
M  V30 12 1 6 13
M  V30 13 1 7 8
M  V30 14 1 7 9
M  V30 15 1 7 14
M  V30 16 1 9 15
M  V30 END BOND
M  V30 END CTAB
M  END
>  <ID>
431
$$$$
Structure_432
Score 	 14.0, smilesprid 	smiles	 smilestrue 	smiles	 similartanimoto 	0	 similardice 	0

   15   16  0  0  0  0            999 V3000
M  V30 BEGIN CTAB
M  V30 COUNTS 15 16 0 0 0
M  V30 BEGIN ATOM
M  V30 1 C -2.5391 -0.1953 0.0000 0
M  V30 2 C -1.7578 -1.3672 0.0000 0
M  V30 3 C -1.7578 0.9766 0.0000 0
M  V30 4 C -0.3906 -0.7812 0.0000 0
M  V30 5 C -0.3906 0.5859 0.0000 0
M  V30 6 C 0.7812 1.1719 0.0000 0
M  V30 7 C 1.9531 -0.7812 0.0000 0
M  V30 8 N 0.7812 -1.5625 0.0000 0
M  V30 9 N 1.9531 0.3906 0.0000 0
M  V30 10 H -3.5156 -0.1953 0.0000 0
M  V30 11 H -2.1484 2.1484 0.0000 0
M  V30 12 H -1.9531 -2.3438 0.0000 0
M  V30 13 H 0.9766 2.3438 0.0000 0
M  V30 14 H 2.9297 -1.3672 0.0000 0
M  V30 15 H 2.7344 0.9766 0.0000 0
M  V30 END ATOM
M  V30 BEGIN BOND
M  V30 1 3 1 2
M  V30 2 3 1 3
M  V30 3 1 1 10
M  V30 4 1 2 4
M  V30 5 1 2 12
M  V30 6 3 3 5
M  V30 7 1 3 11
M  V30 8 3 4 5
M  V30 9 1 4 8
M  V30 10 2 5 6
M  V30 11 1 6 9
M  V30 12 1 6 13
M  V30 13 1 7 8
M  V30 14 1 7 9
M  V30 15 1 7 14
M  V30 16 1 9 15
M  V30 END BOND
M  V30 END CTAB
M  END
>  <ID>
432
$$$$
Structure_433
Score 	 8.0, smilesprid 	smiles	 smilestrue 	smiles	 similartanimoto 	0	 similardice 	0

   15   16  0  0  0  0            999 V3000
M  V30 BEGIN CTAB
M  V30 COUNTS 15 16 0 0 0
M  V30 BEGIN ATOM
M  V30 1 C -2.5391 -0.1953 0.0000 0
M  V30 2 C -1.7578 -1.3672 0.0000 0
M  V30 3 C -1.7578 0.9766 0.0000 0
M  V30 4 C -0.3906 -0.7812 0.0000 0
M  V30 5 C -0.3906 0.5859 0.0000 0
M  V30 6 C 0.7812 1.1719 0.0000 0
M  V30 7 C 1.9531 -0.7812 0.0000 0
M  V30 8 N 0.7812 -1.5625 0.0000 0
M  V30 9 N 1.9531 0.3906 0.0000 0
M  V30 10 H -3.5156 -0.1953 0.0000 0
M  V30 11 H -2.1484 2.1484 0.0000 0
M  V30 12 H -1.9531 -2.3438 0.0000 0
M  V30 13 H 0.9766 2.3438 0.0000 0
M  V30 14 H 2.9297 -1.3672 0.0000 0
M  V30 15 H 2.7344 0.9766 0.0000 0
M  V30 END ATOM
M  V30 BEGIN BOND
M  V30 1 1 1 2
M  V30 2 1 1 3
M  V30 3 1 1 10
M  V30 4 2 2 4
M  V30 5 1 2 12
M  V30 6 1 3 5
M  V30 7 1 3 11
M  V30 8 3 4 5
M  V30 9 1 4 8
M  V30 10 2 5 6
M  V30 11 1 6 9
M  V30 12 1 6 13
M  V30 13 1 7 8
M  V30 14 1 7 9
M  V30 15 1 7 14
M  V30 16 1 9 15
M  V30 END BOND
M  V30 END CTAB
M  END
>  <ID>
433
$$$$
Structure_434
Score 	 8.0, smilesprid 	smiles	 smilestrue 	smiles	 similartanimoto 	0	 similardice 	0

   15   16  0  0  0  0            999 V3000
M  V30 BEGIN CTAB
M  V30 COUNTS 15 16 0 0 0
M  V30 BEGIN ATOM
M  V30 1 C -2.5391 -0.1953 0.0000 0
M  V30 2 C -1.7578 -1.3672 0.0000 0
M  V30 3 C -1.7578 0.9766 0.0000 0
M  V30 4 C -0.3906 -0.7812 0.0000 0
M  V30 5 C -0.3906 0.5859 0.0000 0
M  V30 6 C 0.7812 1.1719 0.0000 0
M  V30 7 C 1.9531 -0.7812 0.0000 0
M  V30 8 N 0.7812 -1.5625 0.0000 0
M  V30 9 N 1.9531 0.3906 0.0000 0
M  V30 10 H -3.5156 -0.1953 0.0000 0
M  V30 11 H -2.1484 2.1484 0.0000 0
M  V30 12 H -1.9531 -2.3438 0.0000 0
M  V30 13 H 0.9766 2.3438 0.0000 0
M  V30 14 H 2.9297 -1.3672 0.0000 0
M  V30 15 H 2.7344 0.9766 0.0000 0
M  V30 END ATOM
M  V30 BEGIN BOND
M  V30 1 2 1 2
M  V30 2 1 1 3
M  V30 3 1 1 10
M  V30 4 2 2 4
M  V30 5 1 2 12
M  V30 6 1 3 5
M  V30 7 1 3 11
M  V30 8 3 4 5
M  V30 9 1 4 8
M  V30 10 2 5 6
M  V30 11 1 6 9
M  V30 12 1 6 13
M  V30 13 1 7 8
M  V30 14 1 7 9
M  V30 15 1 7 14
M  V30 16 1 9 15
M  V30 END BOND
M  V30 END CTAB
M  END
>  <ID>
434
$$$$
Structure_435
Score 	 10.0, smilesprid 	smiles	 smilestrue 	smiles	 similartanimoto 	0	 similardice 	0

   15   16  0  0  0  0            999 V3000
M  V30 BEGIN CTAB
M  V30 COUNTS 15 16 0 0 0
M  V30 BEGIN ATOM
M  V30 1 C -2.5391 -0.1953 0.0000 0
M  V30 2 C -1.7578 -1.3672 0.0000 0
M  V30 3 C -1.7578 0.9766 0.0000 0
M  V30 4 C -0.3906 -0.7812 0.0000 0
M  V30 5 C -0.3906 0.5859 0.0000 0
M  V30 6 C 0.7812 1.1719 0.0000 0
M  V30 7 C 1.9531 -0.7812 0.0000 0
M  V30 8 N 0.7812 -1.5625 0.0000 0
M  V30 9 N 1.9531 0.3906 0.0000 0
M  V30 10 H -3.5156 -0.1953 0.0000 0
M  V30 11 H -2.1484 2.1484 0.0000 0
M  V30 12 H -1.9531 -2.3438 0.0000 0
M  V30 13 H 0.9766 2.3438 0.0000 0
M  V30 14 H 2.9297 -1.3672 0.0000 0
M  V30 15 H 2.7344 0.9766 0.0000 0
M  V30 END ATOM
M  V30 BEGIN BOND
M  V30 1 3 1 2
M  V30 2 1 1 3
M  V30 3 1 1 10
M  V30 4 2 2 4
M  V30 5 1 2 12
M  V30 6 1 3 5
M  V30 7 1 3 11
M  V30 8 3 4 5
M  V30 9 1 4 8
M  V30 10 2 5 6
M  V30 11 1 6 9
M  V30 12 1 6 13
M  V30 13 1 7 8
M  V30 14 1 7 9
M  V30 15 1 7 14
M  V30 16 1 9 15
M  V30 END BOND
M  V30 END CTAB
M  END
>  <ID>
435
$$$$
Structure_436
Score 	 6.0, smilesprid 	smiles	 smilestrue 	smiles	 similartanimoto 	0	 similardice 	0

   15   16  0  0  0  0            999 V3000
M  V30 BEGIN CTAB
M  V30 COUNTS 15 16 0 0 0
M  V30 BEGIN ATOM
M  V30 1 C -2.5391 -0.1953 0.0000 0
M  V30 2 C -1.7578 -1.3672 0.0000 0
M  V30 3 C -1.7578 0.9766 0.0000 0
M  V30 4 C -0.3906 -0.7812 0.0000 0
M  V30 5 C -0.3906 0.5859 0.0000 0
M  V30 6 C 0.7812 1.1719 0.0000 0
M  V30 7 C 1.9531 -0.7812 0.0000 0
M  V30 8 N 0.7812 -1.5625 0.0000 0
M  V30 9 N 1.9531 0.3906 0.0000 0
M  V30 10 H -3.5156 -0.1953 0.0000 0
M  V30 11 H -2.1484 2.1484 0.0000 0
M  V30 12 H -1.9531 -2.3438 0.0000 0
M  V30 13 H 0.9766 2.3438 0.0000 0
M  V30 14 H 2.9297 -1.3672 0.0000 0
M  V30 15 H 2.7344 0.9766 0.0000 0
M  V30 END ATOM
M  V30 BEGIN BOND
M  V30 1 1 1 2
M  V30 2 2 1 3
M  V30 3 1 1 10
M  V30 4 2 2 4
M  V30 5 1 2 12
M  V30 6 1 3 5
M  V30 7 1 3 11
M  V30 8 3 4 5
M  V30 9 1 4 8
M  V30 10 2 5 6
M  V30 11 1 6 9
M  V30 12 1 6 13
M  V30 13 1 7 8
M  V30 14 1 7 9
M  V30 15 1 7 14
M  V30 16 1 9 15
M  V30 END BOND
M  V30 END CTAB
M  END
>  <ID>
436
$$$$
Structure_437
Score 	 8.0, smilesprid 	smiles	 smilestrue 	smiles	 similartanimoto 	0	 similardice 	0

   15   16  0  0  0  0            999 V3000
M  V30 BEGIN CTAB
M  V30 COUNTS 15 16 0 0 0
M  V30 BEGIN ATOM
M  V30 1 C -2.5391 -0.1953 0.0000 0
M  V30 2 C -1.7578 -1.3672 0.0000 0
M  V30 3 C -1.7578 0.9766 0.0000 0
M  V30 4 C -0.3906 -0.7812 0.0000 0
M  V30 5 C -0.3906 0.5859 0.0000 0
M  V30 6 C 0.7812 1.1719 0.0000 0
M  V30 7 C 1.9531 -0.7812 0.0000 0
M  V30 8 N 0.7812 -1.5625 0.0000 0
M  V30 9 N 1.9531 0.3906 0.0000 0
M  V30 10 H -3.5156 -0.1953 0.0000 0
M  V30 11 H -2.1484 2.1484 0.0000 0
M  V30 12 H -1.9531 -2.3438 0.0000 0
M  V30 13 H 0.9766 2.3438 0.0000 0
M  V30 14 H 2.9297 -1.3672 0.0000 0
M  V30 15 H 2.7344 0.9766 0.0000 0
M  V30 END ATOM
M  V30 BEGIN BOND
M  V30 1 2 1 2
M  V30 2 2 1 3
M  V30 3 1 1 10
M  V30 4 2 2 4
M  V30 5 1 2 12
M  V30 6 1 3 5
M  V30 7 1 3 11
M  V30 8 3 4 5
M  V30 9 1 4 8
M  V30 10 2 5 6
M  V30 11 1 6 9
M  V30 12 1 6 13
M  V30 13 1 7 8
M  V30 14 1 7 9
M  V30 15 1 7 14
M  V30 16 1 9 15
M  V30 END BOND
M  V30 END CTAB
M  END
>  <ID>
437
$$$$
Structure_438
Score 	 10.0, smilesprid 	smiles	 smilestrue 	smiles	 similartanimoto 	0	 similardice 	0

   15   16  0  0  0  0            999 V3000
M  V30 BEGIN CTAB
M  V30 COUNTS 15 16 0 0 0
M  V30 BEGIN ATOM
M  V30 1 C -2.5391 -0.1953 0.0000 0
M  V30 2 C -1.7578 -1.3672 0.0000 0
M  V30 3 C -1.7578 0.9766 0.0000 0
M  V30 4 C -0.3906 -0.7812 0.0000 0
M  V30 5 C -0.3906 0.5859 0.0000 0
M  V30 6 C 0.7812 1.1719 0.0000 0
M  V30 7 C 1.9531 -0.7812 0.0000 0
M  V30 8 N 0.7812 -1.5625 0.0000 0
M  V30 9 N 1.9531 0.3906 0.0000 0
M  V30 10 H -3.5156 -0.1953 0.0000 0
M  V30 11 H -2.1484 2.1484 0.0000 0
M  V30 12 H -1.9531 -2.3438 0.0000 0
M  V30 13 H 0.9766 2.3438 0.0000 0
M  V30 14 H 2.9297 -1.3672 0.0000 0
M  V30 15 H 2.7344 0.9766 0.0000 0
M  V30 END ATOM
M  V30 BEGIN BOND
M  V30 1 3 1 2
M  V30 2 2 1 3
M  V30 3 1 1 10
M  V30 4 2 2 4
M  V30 5 1 2 12
M  V30 6 1 3 5
M  V30 7 1 3 11
M  V30 8 3 4 5
M  V30 9 1 4 8
M  V30 10 2 5 6
M  V30 11 1 6 9
M  V30 12 1 6 13
M  V30 13 1 7 8
M  V30 14 1 7 9
M  V30 15 1 7 14
M  V30 16 1 9 15
M  V30 END BOND
M  V30 END CTAB
M  END
>  <ID>
438
$$$$
Structure_439
Score 	 8.0, smilesprid 	smiles	 smilestrue 	smiles	 similartanimoto 	0	 similardice 	0

   15   16  0  0  0  0            999 V3000
M  V30 BEGIN CTAB
M  V30 COUNTS 15 16 0 0 0
M  V30 BEGIN ATOM
M  V30 1 C -2.5391 -0.1953 0.0000 0
M  V30 2 C -1.7578 -1.3672 0.0000 0
M  V30 3 C -1.7578 0.9766 0.0000 0
M  V30 4 C -0.3906 -0.7812 0.0000 0
M  V30 5 C -0.3906 0.5859 0.0000 0
M  V30 6 C 0.7812 1.1719 0.0000 0
M  V30 7 C 1.9531 -0.7812 0.0000 0
M  V30 8 N 0.7812 -1.5625 0.0000 0
M  V30 9 N 1.9531 0.3906 0.0000 0
M  V30 10 H -3.5156 -0.1953 0.0000 0
M  V30 11 H -2.1484 2.1484 0.0000 0
M  V30 12 H -1.9531 -2.3438 0.0000 0
M  V30 13 H 0.9766 2.3438 0.0000 0
M  V30 14 H 2.9297 -1.3672 0.0000 0
M  V30 15 H 2.7344 0.9766 0.0000 0
M  V30 END ATOM
M  V30 BEGIN BOND
M  V30 1 1 1 2
M  V30 2 3 1 3
M  V30 3 1 1 10
M  V30 4 2 2 4
M  V30 5 1 2 12
M  V30 6 1 3 5
M  V30 7 1 3 11
M  V30 8 3 4 5
M  V30 9 1 4 8
M  V30 10 2 5 6
M  V30 11 1 6 9
M  V30 12 1 6 13
M  V30 13 1 7 8
M  V30 14 1 7 9
M  V30 15 1 7 14
M  V30 16 1 9 15
M  V30 END BOND
M  V30 END CTAB
M  END
>  <ID>
439
$$$$
Structure_440
Score 	 10.0, smilesprid 	smiles	 smilestrue 	smiles	 similartanimoto 	0	 similardice 	0

   15   16  0  0  0  0            999 V3000
M  V30 BEGIN CTAB
M  V30 COUNTS 15 16 0 0 0
M  V30 BEGIN ATOM
M  V30 1 C -2.5391 -0.1953 0.0000 0
M  V30 2 C -1.7578 -1.3672 0.0000 0
M  V30 3 C -1.7578 0.9766 0.0000 0
M  V30 4 C -0.3906 -0.7812 0.0000 0
M  V30 5 C -0.3906 0.5859 0.0000 0
M  V30 6 C 0.7812 1.1719 0.0000 0
M  V30 7 C 1.9531 -0.7812 0.0000 0
M  V30 8 N 0.7812 -1.5625 0.0000 0
M  V30 9 N 1.9531 0.3906 0.0000 0
M  V30 10 H -3.5156 -0.1953 0.0000 0
M  V30 11 H -2.1484 2.1484 0.0000 0
M  V30 12 H -1.9531 -2.3438 0.0000 0
M  V30 13 H 0.9766 2.3438 0.0000 0
M  V30 14 H 2.9297 -1.3672 0.0000 0
M  V30 15 H 2.7344 0.9766 0.0000 0
M  V30 END ATOM
M  V30 BEGIN BOND
M  V30 1 2 1 2
M  V30 2 3 1 3
M  V30 3 1 1 10
M  V30 4 2 2 4
M  V30 5 1 2 12
M  V30 6 1 3 5
M  V30 7 1 3 11
M  V30 8 3 4 5
M  V30 9 1 4 8
M  V30 10 2 5 6
M  V30 11 1 6 9
M  V30 12 1 6 13
M  V30 13 1 7 8
M  V30 14 1 7 9
M  V30 15 1 7 14
M  V30 16 1 9 15
M  V30 END BOND
M  V30 END CTAB
M  END
>  <ID>
440
$$$$
Structure_441
Score 	 12.0, smilesprid 	smiles	 smilestrue 	smiles	 similartanimoto 	0	 similardice 	0

   15   16  0  0  0  0            999 V3000
M  V30 BEGIN CTAB
M  V30 COUNTS 15 16 0 0 0
M  V30 BEGIN ATOM
M  V30 1 C -2.5391 -0.1953 0.0000 0
M  V30 2 C -1.7578 -1.3672 0.0000 0
M  V30 3 C -1.7578 0.9766 0.0000 0
M  V30 4 C -0.3906 -0.7812 0.0000 0
M  V30 5 C -0.3906 0.5859 0.0000 0
M  V30 6 C 0.7812 1.1719 0.0000 0
M  V30 7 C 1.9531 -0.7812 0.0000 0
M  V30 8 N 0.7812 -1.5625 0.0000 0
M  V30 9 N 1.9531 0.3906 0.0000 0
M  V30 10 H -3.5156 -0.1953 0.0000 0
M  V30 11 H -2.1484 2.1484 0.0000 0
M  V30 12 H -1.9531 -2.3438 0.0000 0
M  V30 13 H 0.9766 2.3438 0.0000 0
M  V30 14 H 2.9297 -1.3672 0.0000 0
M  V30 15 H 2.7344 0.9766 0.0000 0
M  V30 END ATOM
M  V30 BEGIN BOND
M  V30 1 3 1 2
M  V30 2 3 1 3
M  V30 3 1 1 10
M  V30 4 2 2 4
M  V30 5 1 2 12
M  V30 6 1 3 5
M  V30 7 1 3 11
M  V30 8 3 4 5
M  V30 9 1 4 8
M  V30 10 2 5 6
M  V30 11 1 6 9
M  V30 12 1 6 13
M  V30 13 1 7 8
M  V30 14 1 7 9
M  V30 15 1 7 14
M  V30 16 1 9 15
M  V30 END BOND
M  V30 END CTAB
M  END
>  <ID>
441
$$$$
Structure_442
Score 	 8.0, smilesprid 	smiles	 smilestrue 	smiles	 similartanimoto 	0	 similardice 	0

   15   16  0  0  0  0            999 V3000
M  V30 BEGIN CTAB
M  V30 COUNTS 15 16 0 0 0
M  V30 BEGIN ATOM
M  V30 1 C -2.5391 -0.1953 0.0000 0
M  V30 2 C -1.7578 -1.3672 0.0000 0
M  V30 3 C -1.7578 0.9766 0.0000 0
M  V30 4 C -0.3906 -0.7812 0.0000 0
M  V30 5 C -0.3906 0.5859 0.0000 0
M  V30 6 C 0.7812 1.1719 0.0000 0
M  V30 7 C 1.9531 -0.7812 0.0000 0
M  V30 8 N 0.7812 -1.5625 0.0000 0
M  V30 9 N 1.9531 0.3906 0.0000 0
M  V30 10 H -3.5156 -0.1953 0.0000 0
M  V30 11 H -2.1484 2.1484 0.0000 0
M  V30 12 H -1.9531 -2.3438 0.0000 0
M  V30 13 H 0.9766 2.3438 0.0000 0
M  V30 14 H 2.9297 -1.3672 0.0000 0
M  V30 15 H 2.7344 0.9766 0.0000 0
M  V30 END ATOM
M  V30 BEGIN BOND
M  V30 1 1 1 2
M  V30 2 1 1 3
M  V30 3 1 1 10
M  V30 4 2 2 4
M  V30 5 1 2 12
M  V30 6 2 3 5
M  V30 7 1 3 11
M  V30 8 3 4 5
M  V30 9 1 4 8
M  V30 10 2 5 6
M  V30 11 1 6 9
M  V30 12 1 6 13
M  V30 13 1 7 8
M  V30 14 1 7 9
M  V30 15 1 7 14
M  V30 16 1 9 15
M  V30 END BOND
M  V30 END CTAB
M  END
>  <ID>
442
$$$$
Structure_443
Score 	 8.0, smilesprid 	smiles	 smilestrue 	smiles	 similartanimoto 	0	 similardice 	0

   15   16  0  0  0  0            999 V3000
M  V30 BEGIN CTAB
M  V30 COUNTS 15 16 0 0 0
M  V30 BEGIN ATOM
M  V30 1 C -2.5391 -0.1953 0.0000 0
M  V30 2 C -1.7578 -1.3672 0.0000 0
M  V30 3 C -1.7578 0.9766 0.0000 0
M  V30 4 C -0.3906 -0.7812 0.0000 0
M  V30 5 C -0.3906 0.5859 0.0000 0
M  V30 6 C 0.7812 1.1719 0.0000 0
M  V30 7 C 1.9531 -0.7812 0.0000 0
M  V30 8 N 0.7812 -1.5625 0.0000 0
M  V30 9 N 1.9531 0.3906 0.0000 0
M  V30 10 H -3.5156 -0.1953 0.0000 0
M  V30 11 H -2.1484 2.1484 0.0000 0
M  V30 12 H -1.9531 -2.3438 0.0000 0
M  V30 13 H 0.9766 2.3438 0.0000 0
M  V30 14 H 2.9297 -1.3672 0.0000 0
M  V30 15 H 2.7344 0.9766 0.0000 0
M  V30 END ATOM
M  V30 BEGIN BOND
M  V30 1 2 1 2
M  V30 2 1 1 3
M  V30 3 1 1 10
M  V30 4 2 2 4
M  V30 5 1 2 12
M  V30 6 2 3 5
M  V30 7 1 3 11
M  V30 8 3 4 5
M  V30 9 1 4 8
M  V30 10 2 5 6
M  V30 11 1 6 9
M  V30 12 1 6 13
M  V30 13 1 7 8
M  V30 14 1 7 9
M  V30 15 1 7 14
M  V30 16 1 9 15
M  V30 END BOND
M  V30 END CTAB
M  END
>  <ID>
443
$$$$
Structure_444
Score 	 10.0, smilesprid 	smiles	 smilestrue 	smiles	 similartanimoto 	0	 similardice 	0

   15   16  0  0  0  0            999 V3000
M  V30 BEGIN CTAB
M  V30 COUNTS 15 16 0 0 0
M  V30 BEGIN ATOM
M  V30 1 C -2.5391 -0.1953 0.0000 0
M  V30 2 C -1.7578 -1.3672 0.0000 0
M  V30 3 C -1.7578 0.9766 0.0000 0
M  V30 4 C -0.3906 -0.7812 0.0000 0
M  V30 5 C -0.3906 0.5859 0.0000 0
M  V30 6 C 0.7812 1.1719 0.0000 0
M  V30 7 C 1.9531 -0.7812 0.0000 0
M  V30 8 N 0.7812 -1.5625 0.0000 0
M  V30 9 N 1.9531 0.3906 0.0000 0
M  V30 10 H -3.5156 -0.1953 0.0000 0
M  V30 11 H -2.1484 2.1484 0.0000 0
M  V30 12 H -1.9531 -2.3438 0.0000 0
M  V30 13 H 0.9766 2.3438 0.0000 0
M  V30 14 H 2.9297 -1.3672 0.0000 0
M  V30 15 H 2.7344 0.9766 0.0000 0
M  V30 END ATOM
M  V30 BEGIN BOND
M  V30 1 3 1 2
M  V30 2 1 1 3
M  V30 3 1 1 10
M  V30 4 2 2 4
M  V30 5 1 2 12
M  V30 6 2 3 5
M  V30 7 1 3 11
M  V30 8 3 4 5
M  V30 9 1 4 8
M  V30 10 2 5 6
M  V30 11 1 6 9
M  V30 12 1 6 13
M  V30 13 1 7 8
M  V30 14 1 7 9
M  V30 15 1 7 14
M  V30 16 1 9 15
M  V30 END BOND
M  V30 END CTAB
M  END
>  <ID>
444
$$$$
Structure_445
Score 	 8.0, smilesprid 	smiles	 smilestrue 	smiles	 similartanimoto 	0	 similardice 	0

   15   16  0  0  0  0            999 V3000
M  V30 BEGIN CTAB
M  V30 COUNTS 15 16 0 0 0
M  V30 BEGIN ATOM
M  V30 1 C -2.5391 -0.1953 0.0000 0
M  V30 2 C -1.7578 -1.3672 0.0000 0
M  V30 3 C -1.7578 0.9766 0.0000 0
M  V30 4 C -0.3906 -0.7812 0.0000 0
M  V30 5 C -0.3906 0.5859 0.0000 0
M  V30 6 C 0.7812 1.1719 0.0000 0
M  V30 7 C 1.9531 -0.7812 0.0000 0
M  V30 8 N 0.7812 -1.5625 0.0000 0
M  V30 9 N 1.9531 0.3906 0.0000 0
M  V30 10 H -3.5156 -0.1953 0.0000 0
M  V30 11 H -2.1484 2.1484 0.0000 0
M  V30 12 H -1.9531 -2.3438 0.0000 0
M  V30 13 H 0.9766 2.3438 0.0000 0
M  V30 14 H 2.9297 -1.3672 0.0000 0
M  V30 15 H 2.7344 0.9766 0.0000 0
M  V30 END ATOM
M  V30 BEGIN BOND
M  V30 1 1 1 2
M  V30 2 2 1 3
M  V30 3 1 1 10
M  V30 4 2 2 4
M  V30 5 1 2 12
M  V30 6 2 3 5
M  V30 7 1 3 11
M  V30 8 3 4 5
M  V30 9 1 4 8
M  V30 10 2 5 6
M  V30 11 1 6 9
M  V30 12 1 6 13
M  V30 13 1 7 8
M  V30 14 1 7 9
M  V30 15 1 7 14
M  V30 16 1 9 15
M  V30 END BOND
M  V30 END CTAB
M  END
>  <ID>
445
$$$$
Structure_446
Score 	 10.0, smilesprid 	smiles	 smilestrue 	smiles	 similartanimoto 	0	 similardice 	0

   15   16  0  0  0  0            999 V3000
M  V30 BEGIN CTAB
M  V30 COUNTS 15 16 0 0 0
M  V30 BEGIN ATOM
M  V30 1 C -2.5391 -0.1953 0.0000 0
M  V30 2 C -1.7578 -1.3672 0.0000 0
M  V30 3 C -1.7578 0.9766 0.0000 0
M  V30 4 C -0.3906 -0.7812 0.0000 0
M  V30 5 C -0.3906 0.5859 0.0000 0
M  V30 6 C 0.7812 1.1719 0.0000 0
M  V30 7 C 1.9531 -0.7812 0.0000 0
M  V30 8 N 0.7812 -1.5625 0.0000 0
M  V30 9 N 1.9531 0.3906 0.0000 0
M  V30 10 H -3.5156 -0.1953 0.0000 0
M  V30 11 H -2.1484 2.1484 0.0000 0
M  V30 12 H -1.9531 -2.3438 0.0000 0
M  V30 13 H 0.9766 2.3438 0.0000 0
M  V30 14 H 2.9297 -1.3672 0.0000 0
M  V30 15 H 2.7344 0.9766 0.0000 0
M  V30 END ATOM
M  V30 BEGIN BOND
M  V30 1 2 1 2
M  V30 2 2 1 3
M  V30 3 1 1 10
M  V30 4 2 2 4
M  V30 5 1 2 12
M  V30 6 2 3 5
M  V30 7 1 3 11
M  V30 8 3 4 5
M  V30 9 1 4 8
M  V30 10 2 5 6
M  V30 11 1 6 9
M  V30 12 1 6 13
M  V30 13 1 7 8
M  V30 14 1 7 9
M  V30 15 1 7 14
M  V30 16 1 9 15
M  V30 END BOND
M  V30 END CTAB
M  END
>  <ID>
446
$$$$
Structure_447
Score 	 12.0, smilesprid 	smiles	 smilestrue 	smiles	 similartanimoto 	0	 similardice 	0

   15   16  0  0  0  0            999 V3000
M  V30 BEGIN CTAB
M  V30 COUNTS 15 16 0 0 0
M  V30 BEGIN ATOM
M  V30 1 C -2.5391 -0.1953 0.0000 0
M  V30 2 C -1.7578 -1.3672 0.0000 0
M  V30 3 C -1.7578 0.9766 0.0000 0
M  V30 4 C -0.3906 -0.7812 0.0000 0
M  V30 5 C -0.3906 0.5859 0.0000 0
M  V30 6 C 0.7812 1.1719 0.0000 0
M  V30 7 C 1.9531 -0.7812 0.0000 0
M  V30 8 N 0.7812 -1.5625 0.0000 0
M  V30 9 N 1.9531 0.3906 0.0000 0
M  V30 10 H -3.5156 -0.1953 0.0000 0
M  V30 11 H -2.1484 2.1484 0.0000 0
M  V30 12 H -1.9531 -2.3438 0.0000 0
M  V30 13 H 0.9766 2.3438 0.0000 0
M  V30 14 H 2.9297 -1.3672 0.0000 0
M  V30 15 H 2.7344 0.9766 0.0000 0
M  V30 END ATOM
M  V30 BEGIN BOND
M  V30 1 3 1 2
M  V30 2 2 1 3
M  V30 3 1 1 10
M  V30 4 2 2 4
M  V30 5 1 2 12
M  V30 6 2 3 5
M  V30 7 1 3 11
M  V30 8 3 4 5
M  V30 9 1 4 8
M  V30 10 2 5 6
M  V30 11 1 6 9
M  V30 12 1 6 13
M  V30 13 1 7 8
M  V30 14 1 7 9
M  V30 15 1 7 14
M  V30 16 1 9 15
M  V30 END BOND
M  V30 END CTAB
M  END
>  <ID>
447
$$$$
Structure_448
Score 	 10.0, smilesprid 	smiles	 smilestrue 	smiles	 similartanimoto 	0	 similardice 	0

   15   16  0  0  0  0            999 V3000
M  V30 BEGIN CTAB
M  V30 COUNTS 15 16 0 0 0
M  V30 BEGIN ATOM
M  V30 1 C -2.5391 -0.1953 0.0000 0
M  V30 2 C -1.7578 -1.3672 0.0000 0
M  V30 3 C -1.7578 0.9766 0.0000 0
M  V30 4 C -0.3906 -0.7812 0.0000 0
M  V30 5 C -0.3906 0.5859 0.0000 0
M  V30 6 C 0.7812 1.1719 0.0000 0
M  V30 7 C 1.9531 -0.7812 0.0000 0
M  V30 8 N 0.7812 -1.5625 0.0000 0
M  V30 9 N 1.9531 0.3906 0.0000 0
M  V30 10 H -3.5156 -0.1953 0.0000 0
M  V30 11 H -2.1484 2.1484 0.0000 0
M  V30 12 H -1.9531 -2.3438 0.0000 0
M  V30 13 H 0.9766 2.3438 0.0000 0
M  V30 14 H 2.9297 -1.3672 0.0000 0
M  V30 15 H 2.7344 0.9766 0.0000 0
M  V30 END ATOM
M  V30 BEGIN BOND
M  V30 1 1 1 2
M  V30 2 3 1 3
M  V30 3 1 1 10
M  V30 4 2 2 4
M  V30 5 1 2 12
M  V30 6 2 3 5
M  V30 7 1 3 11
M  V30 8 3 4 5
M  V30 9 1 4 8
M  V30 10 2 5 6
M  V30 11 1 6 9
M  V30 12 1 6 13
M  V30 13 1 7 8
M  V30 14 1 7 9
M  V30 15 1 7 14
M  V30 16 1 9 15
M  V30 END BOND
M  V30 END CTAB
M  END
>  <ID>
448
$$$$
Structure_449
Score 	 12.0, smilesprid 	smiles	 smilestrue 	smiles	 similartanimoto 	0	 similardice 	0

   15   16  0  0  0  0            999 V3000
M  V30 BEGIN CTAB
M  V30 COUNTS 15 16 0 0 0
M  V30 BEGIN ATOM
M  V30 1 C -2.5391 -0.1953 0.0000 0
M  V30 2 C -1.7578 -1.3672 0.0000 0
M  V30 3 C -1.7578 0.9766 0.0000 0
M  V30 4 C -0.3906 -0.7812 0.0000 0
M  V30 5 C -0.3906 0.5859 0.0000 0
M  V30 6 C 0.7812 1.1719 0.0000 0
M  V30 7 C 1.9531 -0.7812 0.0000 0
M  V30 8 N 0.7812 -1.5625 0.0000 0
M  V30 9 N 1.9531 0.3906 0.0000 0
M  V30 10 H -3.5156 -0.1953 0.0000 0
M  V30 11 H -2.1484 2.1484 0.0000 0
M  V30 12 H -1.9531 -2.3438 0.0000 0
M  V30 13 H 0.9766 2.3438 0.0000 0
M  V30 14 H 2.9297 -1.3672 0.0000 0
M  V30 15 H 2.7344 0.9766 0.0000 0
M  V30 END ATOM
M  V30 BEGIN BOND
M  V30 1 2 1 2
M  V30 2 3 1 3
M  V30 3 1 1 10
M  V30 4 2 2 4
M  V30 5 1 2 12
M  V30 6 2 3 5
M  V30 7 1 3 11
M  V30 8 3 4 5
M  V30 9 1 4 8
M  V30 10 2 5 6
M  V30 11 1 6 9
M  V30 12 1 6 13
M  V30 13 1 7 8
M  V30 14 1 7 9
M  V30 15 1 7 14
M  V30 16 1 9 15
M  V30 END BOND
M  V30 END CTAB
M  END
>  <ID>
449
$$$$
Structure_450
Score 	 14.0, smilesprid 	smiles	 smilestrue 	smiles	 similartanimoto 	0	 similardice 	0

   15   16  0  0  0  0            999 V3000
M  V30 BEGIN CTAB
M  V30 COUNTS 15 16 0 0 0
M  V30 BEGIN ATOM
M  V30 1 C -2.5391 -0.1953 0.0000 0
M  V30 2 C -1.7578 -1.3672 0.0000 0
M  V30 3 C -1.7578 0.9766 0.0000 0
M  V30 4 C -0.3906 -0.7812 0.0000 0
M  V30 5 C -0.3906 0.5859 0.0000 0
M  V30 6 C 0.7812 1.1719 0.0000 0
M  V30 7 C 1.9531 -0.7812 0.0000 0
M  V30 8 N 0.7812 -1.5625 0.0000 0
M  V30 9 N 1.9531 0.3906 0.0000 0
M  V30 10 H -3.5156 -0.1953 0.0000 0
M  V30 11 H -2.1484 2.1484 0.0000 0
M  V30 12 H -1.9531 -2.3438 0.0000 0
M  V30 13 H 0.9766 2.3438 0.0000 0
M  V30 14 H 2.9297 -1.3672 0.0000 0
M  V30 15 H 2.7344 0.9766 0.0000 0
M  V30 END ATOM
M  V30 BEGIN BOND
M  V30 1 3 1 2
M  V30 2 3 1 3
M  V30 3 1 1 10
M  V30 4 2 2 4
M  V30 5 1 2 12
M  V30 6 2 3 5
M  V30 7 1 3 11
M  V30 8 3 4 5
M  V30 9 1 4 8
M  V30 10 2 5 6
M  V30 11 1 6 9
M  V30 12 1 6 13
M  V30 13 1 7 8
M  V30 14 1 7 9
M  V30 15 1 7 14
M  V30 16 1 9 15
M  V30 END BOND
M  V30 END CTAB
M  END
>  <ID>
450
$$$$
Structure_451
Score 	 10.0, smilesprid 	smiles	 smilestrue 	smiles	 similartanimoto 	0	 similardice 	0

   15   16  0  0  0  0            999 V3000
M  V30 BEGIN CTAB
M  V30 COUNTS 15 16 0 0 0
M  V30 BEGIN ATOM
M  V30 1 C -2.5391 -0.1953 0.0000 0
M  V30 2 C -1.7578 -1.3672 0.0000 0
M  V30 3 C -1.7578 0.9766 0.0000 0
M  V30 4 C -0.3906 -0.7812 0.0000 0
M  V30 5 C -0.3906 0.5859 0.0000 0
M  V30 6 C 0.7812 1.1719 0.0000 0
M  V30 7 C 1.9531 -0.7812 0.0000 0
M  V30 8 N 0.7812 -1.5625 0.0000 0
M  V30 9 N 1.9531 0.3906 0.0000 0
M  V30 10 H -3.5156 -0.1953 0.0000 0
M  V30 11 H -2.1484 2.1484 0.0000 0
M  V30 12 H -1.9531 -2.3438 0.0000 0
M  V30 13 H 0.9766 2.3438 0.0000 0
M  V30 14 H 2.9297 -1.3672 0.0000 0
M  V30 15 H 2.7344 0.9766 0.0000 0
M  V30 END ATOM
M  V30 BEGIN BOND
M  V30 1 1 1 2
M  V30 2 1 1 3
M  V30 3 1 1 10
M  V30 4 2 2 4
M  V30 5 1 2 12
M  V30 6 3 3 5
M  V30 7 1 3 11
M  V30 8 3 4 5
M  V30 9 1 4 8
M  V30 10 2 5 6
M  V30 11 1 6 9
M  V30 12 1 6 13
M  V30 13 1 7 8
M  V30 14 1 7 9
M  V30 15 1 7 14
M  V30 16 1 9 15
M  V30 END BOND
M  V30 END CTAB
M  END
>  <ID>
451
$$$$
Structure_452
Score 	 10.0, smilesprid 	smiles	 smilestrue 	smiles	 similartanimoto 	0	 similardice 	0

   15   16  0  0  0  0            999 V3000
M  V30 BEGIN CTAB
M  V30 COUNTS 15 16 0 0 0
M  V30 BEGIN ATOM
M  V30 1 C -2.5391 -0.1953 0.0000 0
M  V30 2 C -1.7578 -1.3672 0.0000 0
M  V30 3 C -1.7578 0.9766 0.0000 0
M  V30 4 C -0.3906 -0.7812 0.0000 0
M  V30 5 C -0.3906 0.5859 0.0000 0
M  V30 6 C 0.7812 1.1719 0.0000 0
M  V30 7 C 1.9531 -0.7812 0.0000 0
M  V30 8 N 0.7812 -1.5625 0.0000 0
M  V30 9 N 1.9531 0.3906 0.0000 0
M  V30 10 H -3.5156 -0.1953 0.0000 0
M  V30 11 H -2.1484 2.1484 0.0000 0
M  V30 12 H -1.9531 -2.3438 0.0000 0
M  V30 13 H 0.9766 2.3438 0.0000 0
M  V30 14 H 2.9297 -1.3672 0.0000 0
M  V30 15 H 2.7344 0.9766 0.0000 0
M  V30 END ATOM
M  V30 BEGIN BOND
M  V30 1 2 1 2
M  V30 2 1 1 3
M  V30 3 1 1 10
M  V30 4 2 2 4
M  V30 5 1 2 12
M  V30 6 3 3 5
M  V30 7 1 3 11
M  V30 8 3 4 5
M  V30 9 1 4 8
M  V30 10 2 5 6
M  V30 11 1 6 9
M  V30 12 1 6 13
M  V30 13 1 7 8
M  V30 14 1 7 9
M  V30 15 1 7 14
M  V30 16 1 9 15
M  V30 END BOND
M  V30 END CTAB
M  END
>  <ID>
452
$$$$
Structure_453
Score 	 12.0, smilesprid 	smiles	 smilestrue 	smiles	 similartanimoto 	0	 similardice 	0

   15   16  0  0  0  0            999 V3000
M  V30 BEGIN CTAB
M  V30 COUNTS 15 16 0 0 0
M  V30 BEGIN ATOM
M  V30 1 C -2.5391 -0.1953 0.0000 0
M  V30 2 C -1.7578 -1.3672 0.0000 0
M  V30 3 C -1.7578 0.9766 0.0000 0
M  V30 4 C -0.3906 -0.7812 0.0000 0
M  V30 5 C -0.3906 0.5859 0.0000 0
M  V30 6 C 0.7812 1.1719 0.0000 0
M  V30 7 C 1.9531 -0.7812 0.0000 0
M  V30 8 N 0.7812 -1.5625 0.0000 0
M  V30 9 N 1.9531 0.3906 0.0000 0
M  V30 10 H -3.5156 -0.1953 0.0000 0
M  V30 11 H -2.1484 2.1484 0.0000 0
M  V30 12 H -1.9531 -2.3438 0.0000 0
M  V30 13 H 0.9766 2.3438 0.0000 0
M  V30 14 H 2.9297 -1.3672 0.0000 0
M  V30 15 H 2.7344 0.9766 0.0000 0
M  V30 END ATOM
M  V30 BEGIN BOND
M  V30 1 3 1 2
M  V30 2 1 1 3
M  V30 3 1 1 10
M  V30 4 2 2 4
M  V30 5 1 2 12
M  V30 6 3 3 5
M  V30 7 1 3 11
M  V30 8 3 4 5
M  V30 9 1 4 8
M  V30 10 2 5 6
M  V30 11 1 6 9
M  V30 12 1 6 13
M  V30 13 1 7 8
M  V30 14 1 7 9
M  V30 15 1 7 14
M  V30 16 1 9 15
M  V30 END BOND
M  V30 END CTAB
M  END
>  <ID>
453
$$$$
Structure_454
Score 	 10.0, smilesprid 	smiles	 smilestrue 	smiles	 similartanimoto 	0	 similardice 	0

   15   16  0  0  0  0            999 V3000
M  V30 BEGIN CTAB
M  V30 COUNTS 15 16 0 0 0
M  V30 BEGIN ATOM
M  V30 1 C -2.5391 -0.1953 0.0000 0
M  V30 2 C -1.7578 -1.3672 0.0000 0
M  V30 3 C -1.7578 0.9766 0.0000 0
M  V30 4 C -0.3906 -0.7812 0.0000 0
M  V30 5 C -0.3906 0.5859 0.0000 0
M  V30 6 C 0.7812 1.1719 0.0000 0
M  V30 7 C 1.9531 -0.7812 0.0000 0
M  V30 8 N 0.7812 -1.5625 0.0000 0
M  V30 9 N 1.9531 0.3906 0.0000 0
M  V30 10 H -3.5156 -0.1953 0.0000 0
M  V30 11 H -2.1484 2.1484 0.0000 0
M  V30 12 H -1.9531 -2.3438 0.0000 0
M  V30 13 H 0.9766 2.3438 0.0000 0
M  V30 14 H 2.9297 -1.3672 0.0000 0
M  V30 15 H 2.7344 0.9766 0.0000 0
M  V30 END ATOM
M  V30 BEGIN BOND
M  V30 1 1 1 2
M  V30 2 2 1 3
M  V30 3 1 1 10
M  V30 4 2 2 4
M  V30 5 1 2 12
M  V30 6 3 3 5
M  V30 7 1 3 11
M  V30 8 3 4 5
M  V30 9 1 4 8
M  V30 10 2 5 6
M  V30 11 1 6 9
M  V30 12 1 6 13
M  V30 13 1 7 8
M  V30 14 1 7 9
M  V30 15 1 7 14
M  V30 16 1 9 15
M  V30 END BOND
M  V30 END CTAB
M  END
>  <ID>
454
$$$$
Structure_455
Score 	 12.0, smilesprid 	smiles	 smilestrue 	smiles	 similartanimoto 	0	 similardice 	0

   15   16  0  0  0  0            999 V3000
M  V30 BEGIN CTAB
M  V30 COUNTS 15 16 0 0 0
M  V30 BEGIN ATOM
M  V30 1 C -2.5391 -0.1953 0.0000 0
M  V30 2 C -1.7578 -1.3672 0.0000 0
M  V30 3 C -1.7578 0.9766 0.0000 0
M  V30 4 C -0.3906 -0.7812 0.0000 0
M  V30 5 C -0.3906 0.5859 0.0000 0
M  V30 6 C 0.7812 1.1719 0.0000 0
M  V30 7 C 1.9531 -0.7812 0.0000 0
M  V30 8 N 0.7812 -1.5625 0.0000 0
M  V30 9 N 1.9531 0.3906 0.0000 0
M  V30 10 H -3.5156 -0.1953 0.0000 0
M  V30 11 H -2.1484 2.1484 0.0000 0
M  V30 12 H -1.9531 -2.3438 0.0000 0
M  V30 13 H 0.9766 2.3438 0.0000 0
M  V30 14 H 2.9297 -1.3672 0.0000 0
M  V30 15 H 2.7344 0.9766 0.0000 0
M  V30 END ATOM
M  V30 BEGIN BOND
M  V30 1 2 1 2
M  V30 2 2 1 3
M  V30 3 1 1 10
M  V30 4 2 2 4
M  V30 5 1 2 12
M  V30 6 3 3 5
M  V30 7 1 3 11
M  V30 8 3 4 5
M  V30 9 1 4 8
M  V30 10 2 5 6
M  V30 11 1 6 9
M  V30 12 1 6 13
M  V30 13 1 7 8
M  V30 14 1 7 9
M  V30 15 1 7 14
M  V30 16 1 9 15
M  V30 END BOND
M  V30 END CTAB
M  END
>  <ID>
455
$$$$
Structure_456
Score 	 14.0, smilesprid 	smiles	 smilestrue 	smiles	 similartanimoto 	0	 similardice 	0

   15   16  0  0  0  0            999 V3000
M  V30 BEGIN CTAB
M  V30 COUNTS 15 16 0 0 0
M  V30 BEGIN ATOM
M  V30 1 C -2.5391 -0.1953 0.0000 0
M  V30 2 C -1.7578 -1.3672 0.0000 0
M  V30 3 C -1.7578 0.9766 0.0000 0
M  V30 4 C -0.3906 -0.7812 0.0000 0
M  V30 5 C -0.3906 0.5859 0.0000 0
M  V30 6 C 0.7812 1.1719 0.0000 0
M  V30 7 C 1.9531 -0.7812 0.0000 0
M  V30 8 N 0.7812 -1.5625 0.0000 0
M  V30 9 N 1.9531 0.3906 0.0000 0
M  V30 10 H -3.5156 -0.1953 0.0000 0
M  V30 11 H -2.1484 2.1484 0.0000 0
M  V30 12 H -1.9531 -2.3438 0.0000 0
M  V30 13 H 0.9766 2.3438 0.0000 0
M  V30 14 H 2.9297 -1.3672 0.0000 0
M  V30 15 H 2.7344 0.9766 0.0000 0
M  V30 END ATOM
M  V30 BEGIN BOND
M  V30 1 3 1 2
M  V30 2 2 1 3
M  V30 3 1 1 10
M  V30 4 2 2 4
M  V30 5 1 2 12
M  V30 6 3 3 5
M  V30 7 1 3 11
M  V30 8 3 4 5
M  V30 9 1 4 8
M  V30 10 2 5 6
M  V30 11 1 6 9
M  V30 12 1 6 13
M  V30 13 1 7 8
M  V30 14 1 7 9
M  V30 15 1 7 14
M  V30 16 1 9 15
M  V30 END BOND
M  V30 END CTAB
M  END
>  <ID>
456
$$$$
Structure_457
Score 	 12.0, smilesprid 	smiles	 smilestrue 	smiles	 similartanimoto 	0	 similardice 	0

   15   16  0  0  0  0            999 V3000
M  V30 BEGIN CTAB
M  V30 COUNTS 15 16 0 0 0
M  V30 BEGIN ATOM
M  V30 1 C -2.5391 -0.1953 0.0000 0
M  V30 2 C -1.7578 -1.3672 0.0000 0
M  V30 3 C -1.7578 0.9766 0.0000 0
M  V30 4 C -0.3906 -0.7812 0.0000 0
M  V30 5 C -0.3906 0.5859 0.0000 0
M  V30 6 C 0.7812 1.1719 0.0000 0
M  V30 7 C 1.9531 -0.7812 0.0000 0
M  V30 8 N 0.7812 -1.5625 0.0000 0
M  V30 9 N 1.9531 0.3906 0.0000 0
M  V30 10 H -3.5156 -0.1953 0.0000 0
M  V30 11 H -2.1484 2.1484 0.0000 0
M  V30 12 H -1.9531 -2.3438 0.0000 0
M  V30 13 H 0.9766 2.3438 0.0000 0
M  V30 14 H 2.9297 -1.3672 0.0000 0
M  V30 15 H 2.7344 0.9766 0.0000 0
M  V30 END ATOM
M  V30 BEGIN BOND
M  V30 1 1 1 2
M  V30 2 3 1 3
M  V30 3 1 1 10
M  V30 4 2 2 4
M  V30 5 1 2 12
M  V30 6 3 3 5
M  V30 7 1 3 11
M  V30 8 3 4 5
M  V30 9 1 4 8
M  V30 10 2 5 6
M  V30 11 1 6 9
M  V30 12 1 6 13
M  V30 13 1 7 8
M  V30 14 1 7 9
M  V30 15 1 7 14
M  V30 16 1 9 15
M  V30 END BOND
M  V30 END CTAB
M  END
>  <ID>
457
$$$$
Structure_458
Score 	 14.0, smilesprid 	smiles	 smilestrue 	smiles	 similartanimoto 	0	 similardice 	0

   15   16  0  0  0  0            999 V3000
M  V30 BEGIN CTAB
M  V30 COUNTS 15 16 0 0 0
M  V30 BEGIN ATOM
M  V30 1 C -2.5391 -0.1953 0.0000 0
M  V30 2 C -1.7578 -1.3672 0.0000 0
M  V30 3 C -1.7578 0.9766 0.0000 0
M  V30 4 C -0.3906 -0.7812 0.0000 0
M  V30 5 C -0.3906 0.5859 0.0000 0
M  V30 6 C 0.7812 1.1719 0.0000 0
M  V30 7 C 1.9531 -0.7812 0.0000 0
M  V30 8 N 0.7812 -1.5625 0.0000 0
M  V30 9 N 1.9531 0.3906 0.0000 0
M  V30 10 H -3.5156 -0.1953 0.0000 0
M  V30 11 H -2.1484 2.1484 0.0000 0
M  V30 12 H -1.9531 -2.3438 0.0000 0
M  V30 13 H 0.9766 2.3438 0.0000 0
M  V30 14 H 2.9297 -1.3672 0.0000 0
M  V30 15 H 2.7344 0.9766 0.0000 0
M  V30 END ATOM
M  V30 BEGIN BOND
M  V30 1 2 1 2
M  V30 2 3 1 3
M  V30 3 1 1 10
M  V30 4 2 2 4
M  V30 5 1 2 12
M  V30 6 3 3 5
M  V30 7 1 3 11
M  V30 8 3 4 5
M  V30 9 1 4 8
M  V30 10 2 5 6
M  V30 11 1 6 9
M  V30 12 1 6 13
M  V30 13 1 7 8
M  V30 14 1 7 9
M  V30 15 1 7 14
M  V30 16 1 9 15
M  V30 END BOND
M  V30 END CTAB
M  END
>  <ID>
458
$$$$
Structure_459
Score 	 16.0, smilesprid 	smiles	 smilestrue 	smiles	 similartanimoto 	0	 similardice 	0

   15   16  0  0  0  0            999 V3000
M  V30 BEGIN CTAB
M  V30 COUNTS 15 16 0 0 0
M  V30 BEGIN ATOM
M  V30 1 C -2.5391 -0.1953 0.0000 0
M  V30 2 C -1.7578 -1.3672 0.0000 0
M  V30 3 C -1.7578 0.9766 0.0000 0
M  V30 4 C -0.3906 -0.7812 0.0000 0
M  V30 5 C -0.3906 0.5859 0.0000 0
M  V30 6 C 0.7812 1.1719 0.0000 0
M  V30 7 C 1.9531 -0.7812 0.0000 0
M  V30 8 N 0.7812 -1.5625 0.0000 0
M  V30 9 N 1.9531 0.3906 0.0000 0
M  V30 10 H -3.5156 -0.1953 0.0000 0
M  V30 11 H -2.1484 2.1484 0.0000 0
M  V30 12 H -1.9531 -2.3438 0.0000 0
M  V30 13 H 0.9766 2.3438 0.0000 0
M  V30 14 H 2.9297 -1.3672 0.0000 0
M  V30 15 H 2.7344 0.9766 0.0000 0
M  V30 END ATOM
M  V30 BEGIN BOND
M  V30 1 3 1 2
M  V30 2 3 1 3
M  V30 3 1 1 10
M  V30 4 2 2 4
M  V30 5 1 2 12
M  V30 6 3 3 5
M  V30 7 1 3 11
M  V30 8 3 4 5
M  V30 9 1 4 8
M  V30 10 2 5 6
M  V30 11 1 6 9
M  V30 12 1 6 13
M  V30 13 1 7 8
M  V30 14 1 7 9
M  V30 15 1 7 14
M  V30 16 1 9 15
M  V30 END BOND
M  V30 END CTAB
M  END
>  <ID>
459
$$$$
Structure_460
Score 	 10.0, smilesprid 	smiles	 smilestrue 	smiles	 similartanimoto 	0	 similardice 	0

   15   16  0  0  0  0            999 V3000
M  V30 BEGIN CTAB
M  V30 COUNTS 15 16 0 0 0
M  V30 BEGIN ATOM
M  V30 1 C -2.5391 -0.1953 0.0000 0
M  V30 2 C -1.7578 -1.3672 0.0000 0
M  V30 3 C -1.7578 0.9766 0.0000 0
M  V30 4 C -0.3906 -0.7812 0.0000 0
M  V30 5 C -0.3906 0.5859 0.0000 0
M  V30 6 C 0.7812 1.1719 0.0000 0
M  V30 7 C 1.9531 -0.7812 0.0000 0
M  V30 8 N 0.7812 -1.5625 0.0000 0
M  V30 9 N 1.9531 0.3906 0.0000 0
M  V30 10 H -3.5156 -0.1953 0.0000 0
M  V30 11 H -2.1484 2.1484 0.0000 0
M  V30 12 H -1.9531 -2.3438 0.0000 0
M  V30 13 H 0.9766 2.3438 0.0000 0
M  V30 14 H 2.9297 -1.3672 0.0000 0
M  V30 15 H 2.7344 0.9766 0.0000 0
M  V30 END ATOM
M  V30 BEGIN BOND
M  V30 1 1 1 2
M  V30 2 1 1 3
M  V30 3 1 1 10
M  V30 4 3 2 4
M  V30 5 1 2 12
M  V30 6 1 3 5
M  V30 7 1 3 11
M  V30 8 3 4 5
M  V30 9 1 4 8
M  V30 10 2 5 6
M  V30 11 1 6 9
M  V30 12 1 6 13
M  V30 13 1 7 8
M  V30 14 1 7 9
M  V30 15 1 7 14
M  V30 16 1 9 15
M  V30 END BOND
M  V30 END CTAB
M  END
>  <ID>
460
$$$$
Structure_461
Score 	 10.0, smilesprid 	smiles	 smilestrue 	smiles	 similartanimoto 	0	 similardice 	0

   15   16  0  0  0  0            999 V3000
M  V30 BEGIN CTAB
M  V30 COUNTS 15 16 0 0 0
M  V30 BEGIN ATOM
M  V30 1 C -2.5391 -0.1953 0.0000 0
M  V30 2 C -1.7578 -1.3672 0.0000 0
M  V30 3 C -1.7578 0.9766 0.0000 0
M  V30 4 C -0.3906 -0.7812 0.0000 0
M  V30 5 C -0.3906 0.5859 0.0000 0
M  V30 6 C 0.7812 1.1719 0.0000 0
M  V30 7 C 1.9531 -0.7812 0.0000 0
M  V30 8 N 0.7812 -1.5625 0.0000 0
M  V30 9 N 1.9531 0.3906 0.0000 0
M  V30 10 H -3.5156 -0.1953 0.0000 0
M  V30 11 H -2.1484 2.1484 0.0000 0
M  V30 12 H -1.9531 -2.3438 0.0000 0
M  V30 13 H 0.9766 2.3438 0.0000 0
M  V30 14 H 2.9297 -1.3672 0.0000 0
M  V30 15 H 2.7344 0.9766 0.0000 0
M  V30 END ATOM
M  V30 BEGIN BOND
M  V30 1 2 1 2
M  V30 2 1 1 3
M  V30 3 1 1 10
M  V30 4 3 2 4
M  V30 5 1 2 12
M  V30 6 1 3 5
M  V30 7 1 3 11
M  V30 8 3 4 5
M  V30 9 1 4 8
M  V30 10 2 5 6
M  V30 11 1 6 9
M  V30 12 1 6 13
M  V30 13 1 7 8
M  V30 14 1 7 9
M  V30 15 1 7 14
M  V30 16 1 9 15
M  V30 END BOND
M  V30 END CTAB
M  END
>  <ID>
461
$$$$
Structure_462
Score 	 12.0, smilesprid 	smiles	 smilestrue 	smiles	 similartanimoto 	0	 similardice 	0

   15   16  0  0  0  0            999 V3000
M  V30 BEGIN CTAB
M  V30 COUNTS 15 16 0 0 0
M  V30 BEGIN ATOM
M  V30 1 C -2.5391 -0.1953 0.0000 0
M  V30 2 C -1.7578 -1.3672 0.0000 0
M  V30 3 C -1.7578 0.9766 0.0000 0
M  V30 4 C -0.3906 -0.7812 0.0000 0
M  V30 5 C -0.3906 0.5859 0.0000 0
M  V30 6 C 0.7812 1.1719 0.0000 0
M  V30 7 C 1.9531 -0.7812 0.0000 0
M  V30 8 N 0.7812 -1.5625 0.0000 0
M  V30 9 N 1.9531 0.3906 0.0000 0
M  V30 10 H -3.5156 -0.1953 0.0000 0
M  V30 11 H -2.1484 2.1484 0.0000 0
M  V30 12 H -1.9531 -2.3438 0.0000 0
M  V30 13 H 0.9766 2.3438 0.0000 0
M  V30 14 H 2.9297 -1.3672 0.0000 0
M  V30 15 H 2.7344 0.9766 0.0000 0
M  V30 END ATOM
M  V30 BEGIN BOND
M  V30 1 3 1 2
M  V30 2 1 1 3
M  V30 3 1 1 10
M  V30 4 3 2 4
M  V30 5 1 2 12
M  V30 6 1 3 5
M  V30 7 1 3 11
M  V30 8 3 4 5
M  V30 9 1 4 8
M  V30 10 2 5 6
M  V30 11 1 6 9
M  V30 12 1 6 13
M  V30 13 1 7 8
M  V30 14 1 7 9
M  V30 15 1 7 14
M  V30 16 1 9 15
M  V30 END BOND
M  V30 END CTAB
M  END
>  <ID>
462
$$$$
Structure_463
Score 	 8.0, smilesprid 	smiles	 smilestrue 	smiles	 similartanimoto 	0	 similardice 	0

   15   16  0  0  0  0            999 V3000
M  V30 BEGIN CTAB
M  V30 COUNTS 15 16 0 0 0
M  V30 BEGIN ATOM
M  V30 1 C -2.5391 -0.1953 0.0000 0
M  V30 2 C -1.7578 -1.3672 0.0000 0
M  V30 3 C -1.7578 0.9766 0.0000 0
M  V30 4 C -0.3906 -0.7812 0.0000 0
M  V30 5 C -0.3906 0.5859 0.0000 0
M  V30 6 C 0.7812 1.1719 0.0000 0
M  V30 7 C 1.9531 -0.7812 0.0000 0
M  V30 8 N 0.7812 -1.5625 0.0000 0
M  V30 9 N 1.9531 0.3906 0.0000 0
M  V30 10 H -3.5156 -0.1953 0.0000 0
M  V30 11 H -2.1484 2.1484 0.0000 0
M  V30 12 H -1.9531 -2.3438 0.0000 0
M  V30 13 H 0.9766 2.3438 0.0000 0
M  V30 14 H 2.9297 -1.3672 0.0000 0
M  V30 15 H 2.7344 0.9766 0.0000 0
M  V30 END ATOM
M  V30 BEGIN BOND
M  V30 1 1 1 2
M  V30 2 2 1 3
M  V30 3 1 1 10
M  V30 4 3 2 4
M  V30 5 1 2 12
M  V30 6 1 3 5
M  V30 7 1 3 11
M  V30 8 3 4 5
M  V30 9 1 4 8
M  V30 10 2 5 6
M  V30 11 1 6 9
M  V30 12 1 6 13
M  V30 13 1 7 8
M  V30 14 1 7 9
M  V30 15 1 7 14
M  V30 16 1 9 15
M  V30 END BOND
M  V30 END CTAB
M  END
>  <ID>
463
$$$$
Structure_464
Score 	 10.0, smilesprid 	smiles	 smilestrue 	smiles	 similartanimoto 	0	 similardice 	0

   15   16  0  0  0  0            999 V3000
M  V30 BEGIN CTAB
M  V30 COUNTS 15 16 0 0 0
M  V30 BEGIN ATOM
M  V30 1 C -2.5391 -0.1953 0.0000 0
M  V30 2 C -1.7578 -1.3672 0.0000 0
M  V30 3 C -1.7578 0.9766 0.0000 0
M  V30 4 C -0.3906 -0.7812 0.0000 0
M  V30 5 C -0.3906 0.5859 0.0000 0
M  V30 6 C 0.7812 1.1719 0.0000 0
M  V30 7 C 1.9531 -0.7812 0.0000 0
M  V30 8 N 0.7812 -1.5625 0.0000 0
M  V30 9 N 1.9531 0.3906 0.0000 0
M  V30 10 H -3.5156 -0.1953 0.0000 0
M  V30 11 H -2.1484 2.1484 0.0000 0
M  V30 12 H -1.9531 -2.3438 0.0000 0
M  V30 13 H 0.9766 2.3438 0.0000 0
M  V30 14 H 2.9297 -1.3672 0.0000 0
M  V30 15 H 2.7344 0.9766 0.0000 0
M  V30 END ATOM
M  V30 BEGIN BOND
M  V30 1 2 1 2
M  V30 2 2 1 3
M  V30 3 1 1 10
M  V30 4 3 2 4
M  V30 5 1 2 12
M  V30 6 1 3 5
M  V30 7 1 3 11
M  V30 8 3 4 5
M  V30 9 1 4 8
M  V30 10 2 5 6
M  V30 11 1 6 9
M  V30 12 1 6 13
M  V30 13 1 7 8
M  V30 14 1 7 9
M  V30 15 1 7 14
M  V30 16 1 9 15
M  V30 END BOND
M  V30 END CTAB
M  END
>  <ID>
464
$$$$
Structure_465
Score 	 12.0, smilesprid 	smiles	 smilestrue 	smiles	 similartanimoto 	0	 similardice 	0

   15   16  0  0  0  0            999 V3000
M  V30 BEGIN CTAB
M  V30 COUNTS 15 16 0 0 0
M  V30 BEGIN ATOM
M  V30 1 C -2.5391 -0.1953 0.0000 0
M  V30 2 C -1.7578 -1.3672 0.0000 0
M  V30 3 C -1.7578 0.9766 0.0000 0
M  V30 4 C -0.3906 -0.7812 0.0000 0
M  V30 5 C -0.3906 0.5859 0.0000 0
M  V30 6 C 0.7812 1.1719 0.0000 0
M  V30 7 C 1.9531 -0.7812 0.0000 0
M  V30 8 N 0.7812 -1.5625 0.0000 0
M  V30 9 N 1.9531 0.3906 0.0000 0
M  V30 10 H -3.5156 -0.1953 0.0000 0
M  V30 11 H -2.1484 2.1484 0.0000 0
M  V30 12 H -1.9531 -2.3438 0.0000 0
M  V30 13 H 0.9766 2.3438 0.0000 0
M  V30 14 H 2.9297 -1.3672 0.0000 0
M  V30 15 H 2.7344 0.9766 0.0000 0
M  V30 END ATOM
M  V30 BEGIN BOND
M  V30 1 3 1 2
M  V30 2 2 1 3
M  V30 3 1 1 10
M  V30 4 3 2 4
M  V30 5 1 2 12
M  V30 6 1 3 5
M  V30 7 1 3 11
M  V30 8 3 4 5
M  V30 9 1 4 8
M  V30 10 2 5 6
M  V30 11 1 6 9
M  V30 12 1 6 13
M  V30 13 1 7 8
M  V30 14 1 7 9
M  V30 15 1 7 14
M  V30 16 1 9 15
M  V30 END BOND
M  V30 END CTAB
M  END
>  <ID>
465
$$$$
Structure_466
Score 	 10.0, smilesprid 	smiles	 smilestrue 	smiles	 similartanimoto 	0	 similardice 	0

   15   16  0  0  0  0            999 V3000
M  V30 BEGIN CTAB
M  V30 COUNTS 15 16 0 0 0
M  V30 BEGIN ATOM
M  V30 1 C -2.5391 -0.1953 0.0000 0
M  V30 2 C -1.7578 -1.3672 0.0000 0
M  V30 3 C -1.7578 0.9766 0.0000 0
M  V30 4 C -0.3906 -0.7812 0.0000 0
M  V30 5 C -0.3906 0.5859 0.0000 0
M  V30 6 C 0.7812 1.1719 0.0000 0
M  V30 7 C 1.9531 -0.7812 0.0000 0
M  V30 8 N 0.7812 -1.5625 0.0000 0
M  V30 9 N 1.9531 0.3906 0.0000 0
M  V30 10 H -3.5156 -0.1953 0.0000 0
M  V30 11 H -2.1484 2.1484 0.0000 0
M  V30 12 H -1.9531 -2.3438 0.0000 0
M  V30 13 H 0.9766 2.3438 0.0000 0
M  V30 14 H 2.9297 -1.3672 0.0000 0
M  V30 15 H 2.7344 0.9766 0.0000 0
M  V30 END ATOM
M  V30 BEGIN BOND
M  V30 1 1 1 2
M  V30 2 3 1 3
M  V30 3 1 1 10
M  V30 4 3 2 4
M  V30 5 1 2 12
M  V30 6 1 3 5
M  V30 7 1 3 11
M  V30 8 3 4 5
M  V30 9 1 4 8
M  V30 10 2 5 6
M  V30 11 1 6 9
M  V30 12 1 6 13
M  V30 13 1 7 8
M  V30 14 1 7 9
M  V30 15 1 7 14
M  V30 16 1 9 15
M  V30 END BOND
M  V30 END CTAB
M  END
>  <ID>
466
$$$$
Structure_467
Score 	 12.0, smilesprid 	smiles	 smilestrue 	smiles	 similartanimoto 	0	 similardice 	0

   15   16  0  0  0  0            999 V3000
M  V30 BEGIN CTAB
M  V30 COUNTS 15 16 0 0 0
M  V30 BEGIN ATOM
M  V30 1 C -2.5391 -0.1953 0.0000 0
M  V30 2 C -1.7578 -1.3672 0.0000 0
M  V30 3 C -1.7578 0.9766 0.0000 0
M  V30 4 C -0.3906 -0.7812 0.0000 0
M  V30 5 C -0.3906 0.5859 0.0000 0
M  V30 6 C 0.7812 1.1719 0.0000 0
M  V30 7 C 1.9531 -0.7812 0.0000 0
M  V30 8 N 0.7812 -1.5625 0.0000 0
M  V30 9 N 1.9531 0.3906 0.0000 0
M  V30 10 H -3.5156 -0.1953 0.0000 0
M  V30 11 H -2.1484 2.1484 0.0000 0
M  V30 12 H -1.9531 -2.3438 0.0000 0
M  V30 13 H 0.9766 2.3438 0.0000 0
M  V30 14 H 2.9297 -1.3672 0.0000 0
M  V30 15 H 2.7344 0.9766 0.0000 0
M  V30 END ATOM
M  V30 BEGIN BOND
M  V30 1 2 1 2
M  V30 2 3 1 3
M  V30 3 1 1 10
M  V30 4 3 2 4
M  V30 5 1 2 12
M  V30 6 1 3 5
M  V30 7 1 3 11
M  V30 8 3 4 5
M  V30 9 1 4 8
M  V30 10 2 5 6
M  V30 11 1 6 9
M  V30 12 1 6 13
M  V30 13 1 7 8
M  V30 14 1 7 9
M  V30 15 1 7 14
M  V30 16 1 9 15
M  V30 END BOND
M  V30 END CTAB
M  END
>  <ID>
467
$$$$
Structure_468
Score 	 14.0, smilesprid 	smiles	 smilestrue 	smiles	 similartanimoto 	0	 similardice 	0

   15   16  0  0  0  0            999 V3000
M  V30 BEGIN CTAB
M  V30 COUNTS 15 16 0 0 0
M  V30 BEGIN ATOM
M  V30 1 C -2.5391 -0.1953 0.0000 0
M  V30 2 C -1.7578 -1.3672 0.0000 0
M  V30 3 C -1.7578 0.9766 0.0000 0
M  V30 4 C -0.3906 -0.7812 0.0000 0
M  V30 5 C -0.3906 0.5859 0.0000 0
M  V30 6 C 0.7812 1.1719 0.0000 0
M  V30 7 C 1.9531 -0.7812 0.0000 0
M  V30 8 N 0.7812 -1.5625 0.0000 0
M  V30 9 N 1.9531 0.3906 0.0000 0
M  V30 10 H -3.5156 -0.1953 0.0000 0
M  V30 11 H -2.1484 2.1484 0.0000 0
M  V30 12 H -1.9531 -2.3438 0.0000 0
M  V30 13 H 0.9766 2.3438 0.0000 0
M  V30 14 H 2.9297 -1.3672 0.0000 0
M  V30 15 H 2.7344 0.9766 0.0000 0
M  V30 END ATOM
M  V30 BEGIN BOND
M  V30 1 3 1 2
M  V30 2 3 1 3
M  V30 3 1 1 10
M  V30 4 3 2 4
M  V30 5 1 2 12
M  V30 6 1 3 5
M  V30 7 1 3 11
M  V30 8 3 4 5
M  V30 9 1 4 8
M  V30 10 2 5 6
M  V30 11 1 6 9
M  V30 12 1 6 13
M  V30 13 1 7 8
M  V30 14 1 7 9
M  V30 15 1 7 14
M  V30 16 1 9 15
M  V30 END BOND
M  V30 END CTAB
M  END
>  <ID>
468
$$$$
Structure_469
Score 	 10.0, smilesprid 	smiles	 smilestrue 	smiles	 similartanimoto 	0	 similardice 	0

   15   16  0  0  0  0            999 V3000
M  V30 BEGIN CTAB
M  V30 COUNTS 15 16 0 0 0
M  V30 BEGIN ATOM
M  V30 1 C -2.5391 -0.1953 0.0000 0
M  V30 2 C -1.7578 -1.3672 0.0000 0
M  V30 3 C -1.7578 0.9766 0.0000 0
M  V30 4 C -0.3906 -0.7812 0.0000 0
M  V30 5 C -0.3906 0.5859 0.0000 0
M  V30 6 C 0.7812 1.1719 0.0000 0
M  V30 7 C 1.9531 -0.7812 0.0000 0
M  V30 8 N 0.7812 -1.5625 0.0000 0
M  V30 9 N 1.9531 0.3906 0.0000 0
M  V30 10 H -3.5156 -0.1953 0.0000 0
M  V30 11 H -2.1484 2.1484 0.0000 0
M  V30 12 H -1.9531 -2.3438 0.0000 0
M  V30 13 H 0.9766 2.3438 0.0000 0
M  V30 14 H 2.9297 -1.3672 0.0000 0
M  V30 15 H 2.7344 0.9766 0.0000 0
M  V30 END ATOM
M  V30 BEGIN BOND
M  V30 1 1 1 2
M  V30 2 1 1 3
M  V30 3 1 1 10
M  V30 4 3 2 4
M  V30 5 1 2 12
M  V30 6 2 3 5
M  V30 7 1 3 11
M  V30 8 3 4 5
M  V30 9 1 4 8
M  V30 10 2 5 6
M  V30 11 1 6 9
M  V30 12 1 6 13
M  V30 13 1 7 8
M  V30 14 1 7 9
M  V30 15 1 7 14
M  V30 16 1 9 15
M  V30 END BOND
M  V30 END CTAB
M  END
>  <ID>
469
$$$$
Structure_470
Score 	 10.0, smilesprid 	smiles	 smilestrue 	smiles	 similartanimoto 	0	 similardice 	0

   15   16  0  0  0  0            999 V3000
M  V30 BEGIN CTAB
M  V30 COUNTS 15 16 0 0 0
M  V30 BEGIN ATOM
M  V30 1 C -2.5391 -0.1953 0.0000 0
M  V30 2 C -1.7578 -1.3672 0.0000 0
M  V30 3 C -1.7578 0.9766 0.0000 0
M  V30 4 C -0.3906 -0.7812 0.0000 0
M  V30 5 C -0.3906 0.5859 0.0000 0
M  V30 6 C 0.7812 1.1719 0.0000 0
M  V30 7 C 1.9531 -0.7812 0.0000 0
M  V30 8 N 0.7812 -1.5625 0.0000 0
M  V30 9 N 1.9531 0.3906 0.0000 0
M  V30 10 H -3.5156 -0.1953 0.0000 0
M  V30 11 H -2.1484 2.1484 0.0000 0
M  V30 12 H -1.9531 -2.3438 0.0000 0
M  V30 13 H 0.9766 2.3438 0.0000 0
M  V30 14 H 2.9297 -1.3672 0.0000 0
M  V30 15 H 2.7344 0.9766 0.0000 0
M  V30 END ATOM
M  V30 BEGIN BOND
M  V30 1 2 1 2
M  V30 2 1 1 3
M  V30 3 1 1 10
M  V30 4 3 2 4
M  V30 5 1 2 12
M  V30 6 2 3 5
M  V30 7 1 3 11
M  V30 8 3 4 5
M  V30 9 1 4 8
M  V30 10 2 5 6
M  V30 11 1 6 9
M  V30 12 1 6 13
M  V30 13 1 7 8
M  V30 14 1 7 9
M  V30 15 1 7 14
M  V30 16 1 9 15
M  V30 END BOND
M  V30 END CTAB
M  END
>  <ID>
470
$$$$
Structure_471
Score 	 12.0, smilesprid 	smiles	 smilestrue 	smiles	 similartanimoto 	0	 similardice 	0

   15   16  0  0  0  0            999 V3000
M  V30 BEGIN CTAB
M  V30 COUNTS 15 16 0 0 0
M  V30 BEGIN ATOM
M  V30 1 C -2.5391 -0.1953 0.0000 0
M  V30 2 C -1.7578 -1.3672 0.0000 0
M  V30 3 C -1.7578 0.9766 0.0000 0
M  V30 4 C -0.3906 -0.7812 0.0000 0
M  V30 5 C -0.3906 0.5859 0.0000 0
M  V30 6 C 0.7812 1.1719 0.0000 0
M  V30 7 C 1.9531 -0.7812 0.0000 0
M  V30 8 N 0.7812 -1.5625 0.0000 0
M  V30 9 N 1.9531 0.3906 0.0000 0
M  V30 10 H -3.5156 -0.1953 0.0000 0
M  V30 11 H -2.1484 2.1484 0.0000 0
M  V30 12 H -1.9531 -2.3438 0.0000 0
M  V30 13 H 0.9766 2.3438 0.0000 0
M  V30 14 H 2.9297 -1.3672 0.0000 0
M  V30 15 H 2.7344 0.9766 0.0000 0
M  V30 END ATOM
M  V30 BEGIN BOND
M  V30 1 3 1 2
M  V30 2 1 1 3
M  V30 3 1 1 10
M  V30 4 3 2 4
M  V30 5 1 2 12
M  V30 6 2 3 5
M  V30 7 1 3 11
M  V30 8 3 4 5
M  V30 9 1 4 8
M  V30 10 2 5 6
M  V30 11 1 6 9
M  V30 12 1 6 13
M  V30 13 1 7 8
M  V30 14 1 7 9
M  V30 15 1 7 14
M  V30 16 1 9 15
M  V30 END BOND
M  V30 END CTAB
M  END
>  <ID>
471
$$$$
Structure_472
Score 	 10.0, smilesprid 	smiles	 smilestrue 	smiles	 similartanimoto 	0	 similardice 	0

   15   16  0  0  0  0            999 V3000
M  V30 BEGIN CTAB
M  V30 COUNTS 15 16 0 0 0
M  V30 BEGIN ATOM
M  V30 1 C -2.5391 -0.1953 0.0000 0
M  V30 2 C -1.7578 -1.3672 0.0000 0
M  V30 3 C -1.7578 0.9766 0.0000 0
M  V30 4 C -0.3906 -0.7812 0.0000 0
M  V30 5 C -0.3906 0.5859 0.0000 0
M  V30 6 C 0.7812 1.1719 0.0000 0
M  V30 7 C 1.9531 -0.7812 0.0000 0
M  V30 8 N 0.7812 -1.5625 0.0000 0
M  V30 9 N 1.9531 0.3906 0.0000 0
M  V30 10 H -3.5156 -0.1953 0.0000 0
M  V30 11 H -2.1484 2.1484 0.0000 0
M  V30 12 H -1.9531 -2.3438 0.0000 0
M  V30 13 H 0.9766 2.3438 0.0000 0
M  V30 14 H 2.9297 -1.3672 0.0000 0
M  V30 15 H 2.7344 0.9766 0.0000 0
M  V30 END ATOM
M  V30 BEGIN BOND
M  V30 1 1 1 2
M  V30 2 2 1 3
M  V30 3 1 1 10
M  V30 4 3 2 4
M  V30 5 1 2 12
M  V30 6 2 3 5
M  V30 7 1 3 11
M  V30 8 3 4 5
M  V30 9 1 4 8
M  V30 10 2 5 6
M  V30 11 1 6 9
M  V30 12 1 6 13
M  V30 13 1 7 8
M  V30 14 1 7 9
M  V30 15 1 7 14
M  V30 16 1 9 15
M  V30 END BOND
M  V30 END CTAB
M  END
>  <ID>
472
$$$$
Structure_473
Score 	 12.0, smilesprid 	smiles	 smilestrue 	smiles	 similartanimoto 	0	 similardice 	0

   15   16  0  0  0  0            999 V3000
M  V30 BEGIN CTAB
M  V30 COUNTS 15 16 0 0 0
M  V30 BEGIN ATOM
M  V30 1 C -2.5391 -0.1953 0.0000 0
M  V30 2 C -1.7578 -1.3672 0.0000 0
M  V30 3 C -1.7578 0.9766 0.0000 0
M  V30 4 C -0.3906 -0.7812 0.0000 0
M  V30 5 C -0.3906 0.5859 0.0000 0
M  V30 6 C 0.7812 1.1719 0.0000 0
M  V30 7 C 1.9531 -0.7812 0.0000 0
M  V30 8 N 0.7812 -1.5625 0.0000 0
M  V30 9 N 1.9531 0.3906 0.0000 0
M  V30 10 H -3.5156 -0.1953 0.0000 0
M  V30 11 H -2.1484 2.1484 0.0000 0
M  V30 12 H -1.9531 -2.3438 0.0000 0
M  V30 13 H 0.9766 2.3438 0.0000 0
M  V30 14 H 2.9297 -1.3672 0.0000 0
M  V30 15 H 2.7344 0.9766 0.0000 0
M  V30 END ATOM
M  V30 BEGIN BOND
M  V30 1 2 1 2
M  V30 2 2 1 3
M  V30 3 1 1 10
M  V30 4 3 2 4
M  V30 5 1 2 12
M  V30 6 2 3 5
M  V30 7 1 3 11
M  V30 8 3 4 5
M  V30 9 1 4 8
M  V30 10 2 5 6
M  V30 11 1 6 9
M  V30 12 1 6 13
M  V30 13 1 7 8
M  V30 14 1 7 9
M  V30 15 1 7 14
M  V30 16 1 9 15
M  V30 END BOND
M  V30 END CTAB
M  END
>  <ID>
473
$$$$
Structure_474
Score 	 14.0, smilesprid 	smiles	 smilestrue 	smiles	 similartanimoto 	0	 similardice 	0

   15   16  0  0  0  0            999 V3000
M  V30 BEGIN CTAB
M  V30 COUNTS 15 16 0 0 0
M  V30 BEGIN ATOM
M  V30 1 C -2.5391 -0.1953 0.0000 0
M  V30 2 C -1.7578 -1.3672 0.0000 0
M  V30 3 C -1.7578 0.9766 0.0000 0
M  V30 4 C -0.3906 -0.7812 0.0000 0
M  V30 5 C -0.3906 0.5859 0.0000 0
M  V30 6 C 0.7812 1.1719 0.0000 0
M  V30 7 C 1.9531 -0.7812 0.0000 0
M  V30 8 N 0.7812 -1.5625 0.0000 0
M  V30 9 N 1.9531 0.3906 0.0000 0
M  V30 10 H -3.5156 -0.1953 0.0000 0
M  V30 11 H -2.1484 2.1484 0.0000 0
M  V30 12 H -1.9531 -2.3438 0.0000 0
M  V30 13 H 0.9766 2.3438 0.0000 0
M  V30 14 H 2.9297 -1.3672 0.0000 0
M  V30 15 H 2.7344 0.9766 0.0000 0
M  V30 END ATOM
M  V30 BEGIN BOND
M  V30 1 3 1 2
M  V30 2 2 1 3
M  V30 3 1 1 10
M  V30 4 3 2 4
M  V30 5 1 2 12
M  V30 6 2 3 5
M  V30 7 1 3 11
M  V30 8 3 4 5
M  V30 9 1 4 8
M  V30 10 2 5 6
M  V30 11 1 6 9
M  V30 12 1 6 13
M  V30 13 1 7 8
M  V30 14 1 7 9
M  V30 15 1 7 14
M  V30 16 1 9 15
M  V30 END BOND
M  V30 END CTAB
M  END
>  <ID>
474
$$$$
Structure_475
Score 	 12.0, smilesprid 	smiles	 smilestrue 	smiles	 similartanimoto 	0	 similardice 	0

   15   16  0  0  0  0            999 V3000
M  V30 BEGIN CTAB
M  V30 COUNTS 15 16 0 0 0
M  V30 BEGIN ATOM
M  V30 1 C -2.5391 -0.1953 0.0000 0
M  V30 2 C -1.7578 -1.3672 0.0000 0
M  V30 3 C -1.7578 0.9766 0.0000 0
M  V30 4 C -0.3906 -0.7812 0.0000 0
M  V30 5 C -0.3906 0.5859 0.0000 0
M  V30 6 C 0.7812 1.1719 0.0000 0
M  V30 7 C 1.9531 -0.7812 0.0000 0
M  V30 8 N 0.7812 -1.5625 0.0000 0
M  V30 9 N 1.9531 0.3906 0.0000 0
M  V30 10 H -3.5156 -0.1953 0.0000 0
M  V30 11 H -2.1484 2.1484 0.0000 0
M  V30 12 H -1.9531 -2.3438 0.0000 0
M  V30 13 H 0.9766 2.3438 0.0000 0
M  V30 14 H 2.9297 -1.3672 0.0000 0
M  V30 15 H 2.7344 0.9766 0.0000 0
M  V30 END ATOM
M  V30 BEGIN BOND
M  V30 1 1 1 2
M  V30 2 3 1 3
M  V30 3 1 1 10
M  V30 4 3 2 4
M  V30 5 1 2 12
M  V30 6 2 3 5
M  V30 7 1 3 11
M  V30 8 3 4 5
M  V30 9 1 4 8
M  V30 10 2 5 6
M  V30 11 1 6 9
M  V30 12 1 6 13
M  V30 13 1 7 8
M  V30 14 1 7 9
M  V30 15 1 7 14
M  V30 16 1 9 15
M  V30 END BOND
M  V30 END CTAB
M  END
>  <ID>
475
$$$$
Structure_476
Score 	 14.0, smilesprid 	smiles	 smilestrue 	smiles	 similartanimoto 	0	 similardice 	0

   15   16  0  0  0  0            999 V3000
M  V30 BEGIN CTAB
M  V30 COUNTS 15 16 0 0 0
M  V30 BEGIN ATOM
M  V30 1 C -2.5391 -0.1953 0.0000 0
M  V30 2 C -1.7578 -1.3672 0.0000 0
M  V30 3 C -1.7578 0.9766 0.0000 0
M  V30 4 C -0.3906 -0.7812 0.0000 0
M  V30 5 C -0.3906 0.5859 0.0000 0
M  V30 6 C 0.7812 1.1719 0.0000 0
M  V30 7 C 1.9531 -0.7812 0.0000 0
M  V30 8 N 0.7812 -1.5625 0.0000 0
M  V30 9 N 1.9531 0.3906 0.0000 0
M  V30 10 H -3.5156 -0.1953 0.0000 0
M  V30 11 H -2.1484 2.1484 0.0000 0
M  V30 12 H -1.9531 -2.3438 0.0000 0
M  V30 13 H 0.9766 2.3438 0.0000 0
M  V30 14 H 2.9297 -1.3672 0.0000 0
M  V30 15 H 2.7344 0.9766 0.0000 0
M  V30 END ATOM
M  V30 BEGIN BOND
M  V30 1 2 1 2
M  V30 2 3 1 3
M  V30 3 1 1 10
M  V30 4 3 2 4
M  V30 5 1 2 12
M  V30 6 2 3 5
M  V30 7 1 3 11
M  V30 8 3 4 5
M  V30 9 1 4 8
M  V30 10 2 5 6
M  V30 11 1 6 9
M  V30 12 1 6 13
M  V30 13 1 7 8
M  V30 14 1 7 9
M  V30 15 1 7 14
M  V30 16 1 9 15
M  V30 END BOND
M  V30 END CTAB
M  END
>  <ID>
476
$$$$
Structure_477
Score 	 16.0, smilesprid 	smiles	 smilestrue 	smiles	 similartanimoto 	0	 similardice 	0

   15   16  0  0  0  0            999 V3000
M  V30 BEGIN CTAB
M  V30 COUNTS 15 16 0 0 0
M  V30 BEGIN ATOM
M  V30 1 C -2.5391 -0.1953 0.0000 0
M  V30 2 C -1.7578 -1.3672 0.0000 0
M  V30 3 C -1.7578 0.9766 0.0000 0
M  V30 4 C -0.3906 -0.7812 0.0000 0
M  V30 5 C -0.3906 0.5859 0.0000 0
M  V30 6 C 0.7812 1.1719 0.0000 0
M  V30 7 C 1.9531 -0.7812 0.0000 0
M  V30 8 N 0.7812 -1.5625 0.0000 0
M  V30 9 N 1.9531 0.3906 0.0000 0
M  V30 10 H -3.5156 -0.1953 0.0000 0
M  V30 11 H -2.1484 2.1484 0.0000 0
M  V30 12 H -1.9531 -2.3438 0.0000 0
M  V30 13 H 0.9766 2.3438 0.0000 0
M  V30 14 H 2.9297 -1.3672 0.0000 0
M  V30 15 H 2.7344 0.9766 0.0000 0
M  V30 END ATOM
M  V30 BEGIN BOND
M  V30 1 3 1 2
M  V30 2 3 1 3
M  V30 3 1 1 10
M  V30 4 3 2 4
M  V30 5 1 2 12
M  V30 6 2 3 5
M  V30 7 1 3 11
M  V30 8 3 4 5
M  V30 9 1 4 8
M  V30 10 2 5 6
M  V30 11 1 6 9
M  V30 12 1 6 13
M  V30 13 1 7 8
M  V30 14 1 7 9
M  V30 15 1 7 14
M  V30 16 1 9 15
M  V30 END BOND
M  V30 END CTAB
M  END
>  <ID>
477
$$$$
Structure_478
Score 	 12.0, smilesprid 	smiles	 smilestrue 	smiles	 similartanimoto 	0	 similardice 	0

   15   16  0  0  0  0            999 V3000
M  V30 BEGIN CTAB
M  V30 COUNTS 15 16 0 0 0
M  V30 BEGIN ATOM
M  V30 1 C -2.5391 -0.1953 0.0000 0
M  V30 2 C -1.7578 -1.3672 0.0000 0
M  V30 3 C -1.7578 0.9766 0.0000 0
M  V30 4 C -0.3906 -0.7812 0.0000 0
M  V30 5 C -0.3906 0.5859 0.0000 0
M  V30 6 C 0.7812 1.1719 0.0000 0
M  V30 7 C 1.9531 -0.7812 0.0000 0
M  V30 8 N 0.7812 -1.5625 0.0000 0
M  V30 9 N 1.9531 0.3906 0.0000 0
M  V30 10 H -3.5156 -0.1953 0.0000 0
M  V30 11 H -2.1484 2.1484 0.0000 0
M  V30 12 H -1.9531 -2.3438 0.0000 0
M  V30 13 H 0.9766 2.3438 0.0000 0
M  V30 14 H 2.9297 -1.3672 0.0000 0
M  V30 15 H 2.7344 0.9766 0.0000 0
M  V30 END ATOM
M  V30 BEGIN BOND
M  V30 1 1 1 2
M  V30 2 1 1 3
M  V30 3 1 1 10
M  V30 4 3 2 4
M  V30 5 1 2 12
M  V30 6 3 3 5
M  V30 7 1 3 11
M  V30 8 3 4 5
M  V30 9 1 4 8
M  V30 10 2 5 6
M  V30 11 1 6 9
M  V30 12 1 6 13
M  V30 13 1 7 8
M  V30 14 1 7 9
M  V30 15 1 7 14
M  V30 16 1 9 15
M  V30 END BOND
M  V30 END CTAB
M  END
>  <ID>
478
$$$$
Structure_479
Score 	 12.0, smilesprid 	smiles	 smilestrue 	smiles	 similartanimoto 	0	 similardice 	0

   15   16  0  0  0  0            999 V3000
M  V30 BEGIN CTAB
M  V30 COUNTS 15 16 0 0 0
M  V30 BEGIN ATOM
M  V30 1 C -2.5391 -0.1953 0.0000 0
M  V30 2 C -1.7578 -1.3672 0.0000 0
M  V30 3 C -1.7578 0.9766 0.0000 0
M  V30 4 C -0.3906 -0.7812 0.0000 0
M  V30 5 C -0.3906 0.5859 0.0000 0
M  V30 6 C 0.7812 1.1719 0.0000 0
M  V30 7 C 1.9531 -0.7812 0.0000 0
M  V30 8 N 0.7812 -1.5625 0.0000 0
M  V30 9 N 1.9531 0.3906 0.0000 0
M  V30 10 H -3.5156 -0.1953 0.0000 0
M  V30 11 H -2.1484 2.1484 0.0000 0
M  V30 12 H -1.9531 -2.3438 0.0000 0
M  V30 13 H 0.9766 2.3438 0.0000 0
M  V30 14 H 2.9297 -1.3672 0.0000 0
M  V30 15 H 2.7344 0.9766 0.0000 0
M  V30 END ATOM
M  V30 BEGIN BOND
M  V30 1 2 1 2
M  V30 2 1 1 3
M  V30 3 1 1 10
M  V30 4 3 2 4
M  V30 5 1 2 12
M  V30 6 3 3 5
M  V30 7 1 3 11
M  V30 8 3 4 5
M  V30 9 1 4 8
M  V30 10 2 5 6
M  V30 11 1 6 9
M  V30 12 1 6 13
M  V30 13 1 7 8
M  V30 14 1 7 9
M  V30 15 1 7 14
M  V30 16 1 9 15
M  V30 END BOND
M  V30 END CTAB
M  END
>  <ID>
479
$$$$
Structure_480
Score 	 14.0, smilesprid 	smiles	 smilestrue 	smiles	 similartanimoto 	0	 similardice 	0

   15   16  0  0  0  0            999 V3000
M  V30 BEGIN CTAB
M  V30 COUNTS 15 16 0 0 0
M  V30 BEGIN ATOM
M  V30 1 C -2.5391 -0.1953 0.0000 0
M  V30 2 C -1.7578 -1.3672 0.0000 0
M  V30 3 C -1.7578 0.9766 0.0000 0
M  V30 4 C -0.3906 -0.7812 0.0000 0
M  V30 5 C -0.3906 0.5859 0.0000 0
M  V30 6 C 0.7812 1.1719 0.0000 0
M  V30 7 C 1.9531 -0.7812 0.0000 0
M  V30 8 N 0.7812 -1.5625 0.0000 0
M  V30 9 N 1.9531 0.3906 0.0000 0
M  V30 10 H -3.5156 -0.1953 0.0000 0
M  V30 11 H -2.1484 2.1484 0.0000 0
M  V30 12 H -1.9531 -2.3438 0.0000 0
M  V30 13 H 0.9766 2.3438 0.0000 0
M  V30 14 H 2.9297 -1.3672 0.0000 0
M  V30 15 H 2.7344 0.9766 0.0000 0
M  V30 END ATOM
M  V30 BEGIN BOND
M  V30 1 3 1 2
M  V30 2 1 1 3
M  V30 3 1 1 10
M  V30 4 3 2 4
M  V30 5 1 2 12
M  V30 6 3 3 5
M  V30 7 1 3 11
M  V30 8 3 4 5
M  V30 9 1 4 8
M  V30 10 2 5 6
M  V30 11 1 6 9
M  V30 12 1 6 13
M  V30 13 1 7 8
M  V30 14 1 7 9
M  V30 15 1 7 14
M  V30 16 1 9 15
M  V30 END BOND
M  V30 END CTAB
M  END
>  <ID>
480
$$$$
Structure_481
Score 	 12.0, smilesprid 	smiles	 smilestrue 	smiles	 similartanimoto 	0	 similardice 	0

   15   16  0  0  0  0            999 V3000
M  V30 BEGIN CTAB
M  V30 COUNTS 15 16 0 0 0
M  V30 BEGIN ATOM
M  V30 1 C -2.5391 -0.1953 0.0000 0
M  V30 2 C -1.7578 -1.3672 0.0000 0
M  V30 3 C -1.7578 0.9766 0.0000 0
M  V30 4 C -0.3906 -0.7812 0.0000 0
M  V30 5 C -0.3906 0.5859 0.0000 0
M  V30 6 C 0.7812 1.1719 0.0000 0
M  V30 7 C 1.9531 -0.7812 0.0000 0
M  V30 8 N 0.7812 -1.5625 0.0000 0
M  V30 9 N 1.9531 0.3906 0.0000 0
M  V30 10 H -3.5156 -0.1953 0.0000 0
M  V30 11 H -2.1484 2.1484 0.0000 0
M  V30 12 H -1.9531 -2.3438 0.0000 0
M  V30 13 H 0.9766 2.3438 0.0000 0
M  V30 14 H 2.9297 -1.3672 0.0000 0
M  V30 15 H 2.7344 0.9766 0.0000 0
M  V30 END ATOM
M  V30 BEGIN BOND
M  V30 1 1 1 2
M  V30 2 2 1 3
M  V30 3 1 1 10
M  V30 4 3 2 4
M  V30 5 1 2 12
M  V30 6 3 3 5
M  V30 7 1 3 11
M  V30 8 3 4 5
M  V30 9 1 4 8
M  V30 10 2 5 6
M  V30 11 1 6 9
M  V30 12 1 6 13
M  V30 13 1 7 8
M  V30 14 1 7 9
M  V30 15 1 7 14
M  V30 16 1 9 15
M  V30 END BOND
M  V30 END CTAB
M  END
>  <ID>
481
$$$$
Structure_482
Score 	 14.0, smilesprid 	smiles	 smilestrue 	smiles	 similartanimoto 	0	 similardice 	0

   15   16  0  0  0  0            999 V3000
M  V30 BEGIN CTAB
M  V30 COUNTS 15 16 0 0 0
M  V30 BEGIN ATOM
M  V30 1 C -2.5391 -0.1953 0.0000 0
M  V30 2 C -1.7578 -1.3672 0.0000 0
M  V30 3 C -1.7578 0.9766 0.0000 0
M  V30 4 C -0.3906 -0.7812 0.0000 0
M  V30 5 C -0.3906 0.5859 0.0000 0
M  V30 6 C 0.7812 1.1719 0.0000 0
M  V30 7 C 1.9531 -0.7812 0.0000 0
M  V30 8 N 0.7812 -1.5625 0.0000 0
M  V30 9 N 1.9531 0.3906 0.0000 0
M  V30 10 H -3.5156 -0.1953 0.0000 0
M  V30 11 H -2.1484 2.1484 0.0000 0
M  V30 12 H -1.9531 -2.3438 0.0000 0
M  V30 13 H 0.9766 2.3438 0.0000 0
M  V30 14 H 2.9297 -1.3672 0.0000 0
M  V30 15 H 2.7344 0.9766 0.0000 0
M  V30 END ATOM
M  V30 BEGIN BOND
M  V30 1 2 1 2
M  V30 2 2 1 3
M  V30 3 1 1 10
M  V30 4 3 2 4
M  V30 5 1 2 12
M  V30 6 3 3 5
M  V30 7 1 3 11
M  V30 8 3 4 5
M  V30 9 1 4 8
M  V30 10 2 5 6
M  V30 11 1 6 9
M  V30 12 1 6 13
M  V30 13 1 7 8
M  V30 14 1 7 9
M  V30 15 1 7 14
M  V30 16 1 9 15
M  V30 END BOND
M  V30 END CTAB
M  END
>  <ID>
482
$$$$
Structure_483
Score 	 16.0, smilesprid 	smiles	 smilestrue 	smiles	 similartanimoto 	0	 similardice 	0

   15   16  0  0  0  0            999 V3000
M  V30 BEGIN CTAB
M  V30 COUNTS 15 16 0 0 0
M  V30 BEGIN ATOM
M  V30 1 C -2.5391 -0.1953 0.0000 0
M  V30 2 C -1.7578 -1.3672 0.0000 0
M  V30 3 C -1.7578 0.9766 0.0000 0
M  V30 4 C -0.3906 -0.7812 0.0000 0
M  V30 5 C -0.3906 0.5859 0.0000 0
M  V30 6 C 0.7812 1.1719 0.0000 0
M  V30 7 C 1.9531 -0.7812 0.0000 0
M  V30 8 N 0.7812 -1.5625 0.0000 0
M  V30 9 N 1.9531 0.3906 0.0000 0
M  V30 10 H -3.5156 -0.1953 0.0000 0
M  V30 11 H -2.1484 2.1484 0.0000 0
M  V30 12 H -1.9531 -2.3438 0.0000 0
M  V30 13 H 0.9766 2.3438 0.0000 0
M  V30 14 H 2.9297 -1.3672 0.0000 0
M  V30 15 H 2.7344 0.9766 0.0000 0
M  V30 END ATOM
M  V30 BEGIN BOND
M  V30 1 3 1 2
M  V30 2 2 1 3
M  V30 3 1 1 10
M  V30 4 3 2 4
M  V30 5 1 2 12
M  V30 6 3 3 5
M  V30 7 1 3 11
M  V30 8 3 4 5
M  V30 9 1 4 8
M  V30 10 2 5 6
M  V30 11 1 6 9
M  V30 12 1 6 13
M  V30 13 1 7 8
M  V30 14 1 7 9
M  V30 15 1 7 14
M  V30 16 1 9 15
M  V30 END BOND
M  V30 END CTAB
M  END
>  <ID>
483
$$$$
Structure_484
Score 	 14.0, smilesprid 	smiles	 smilestrue 	smiles	 similartanimoto 	0	 similardice 	0

   15   16  0  0  0  0            999 V3000
M  V30 BEGIN CTAB
M  V30 COUNTS 15 16 0 0 0
M  V30 BEGIN ATOM
M  V30 1 C -2.5391 -0.1953 0.0000 0
M  V30 2 C -1.7578 -1.3672 0.0000 0
M  V30 3 C -1.7578 0.9766 0.0000 0
M  V30 4 C -0.3906 -0.7812 0.0000 0
M  V30 5 C -0.3906 0.5859 0.0000 0
M  V30 6 C 0.7812 1.1719 0.0000 0
M  V30 7 C 1.9531 -0.7812 0.0000 0
M  V30 8 N 0.7812 -1.5625 0.0000 0
M  V30 9 N 1.9531 0.3906 0.0000 0
M  V30 10 H -3.5156 -0.1953 0.0000 0
M  V30 11 H -2.1484 2.1484 0.0000 0
M  V30 12 H -1.9531 -2.3438 0.0000 0
M  V30 13 H 0.9766 2.3438 0.0000 0
M  V30 14 H 2.9297 -1.3672 0.0000 0
M  V30 15 H 2.7344 0.9766 0.0000 0
M  V30 END ATOM
M  V30 BEGIN BOND
M  V30 1 1 1 2
M  V30 2 3 1 3
M  V30 3 1 1 10
M  V30 4 3 2 4
M  V30 5 1 2 12
M  V30 6 3 3 5
M  V30 7 1 3 11
M  V30 8 3 4 5
M  V30 9 1 4 8
M  V30 10 2 5 6
M  V30 11 1 6 9
M  V30 12 1 6 13
M  V30 13 1 7 8
M  V30 14 1 7 9
M  V30 15 1 7 14
M  V30 16 1 9 15
M  V30 END BOND
M  V30 END CTAB
M  END
>  <ID>
484
$$$$
Structure_485
Score 	 16.0, smilesprid 	smiles	 smilestrue 	smiles	 similartanimoto 	0	 similardice 	0

   15   16  0  0  0  0            999 V3000
M  V30 BEGIN CTAB
M  V30 COUNTS 15 16 0 0 0
M  V30 BEGIN ATOM
M  V30 1 C -2.5391 -0.1953 0.0000 0
M  V30 2 C -1.7578 -1.3672 0.0000 0
M  V30 3 C -1.7578 0.9766 0.0000 0
M  V30 4 C -0.3906 -0.7812 0.0000 0
M  V30 5 C -0.3906 0.5859 0.0000 0
M  V30 6 C 0.7812 1.1719 0.0000 0
M  V30 7 C 1.9531 -0.7812 0.0000 0
M  V30 8 N 0.7812 -1.5625 0.0000 0
M  V30 9 N 1.9531 0.3906 0.0000 0
M  V30 10 H -3.5156 -0.1953 0.0000 0
M  V30 11 H -2.1484 2.1484 0.0000 0
M  V30 12 H -1.9531 -2.3438 0.0000 0
M  V30 13 H 0.9766 2.3438 0.0000 0
M  V30 14 H 2.9297 -1.3672 0.0000 0
M  V30 15 H 2.7344 0.9766 0.0000 0
M  V30 END ATOM
M  V30 BEGIN BOND
M  V30 1 2 1 2
M  V30 2 3 1 3
M  V30 3 1 1 10
M  V30 4 3 2 4
M  V30 5 1 2 12
M  V30 6 3 3 5
M  V30 7 1 3 11
M  V30 8 3 4 5
M  V30 9 1 4 8
M  V30 10 2 5 6
M  V30 11 1 6 9
M  V30 12 1 6 13
M  V30 13 1 7 8
M  V30 14 1 7 9
M  V30 15 1 7 14
M  V30 16 1 9 15
M  V30 END BOND
M  V30 END CTAB
M  END
>  <ID>
485
$$$$
Structure_486
Score 	 18.0, smilesprid 	smiles	 smilestrue 	smiles	 similartanimoto 	0	 similardice 	0

   15   16  0  0  0  0            999 V3000
M  V30 BEGIN CTAB
M  V30 COUNTS 15 16 0 0 0
M  V30 BEGIN ATOM
M  V30 1 C -2.5391 -0.1953 0.0000 0
M  V30 2 C -1.7578 -1.3672 0.0000 0
M  V30 3 C -1.7578 0.9766 0.0000 0
M  V30 4 C -0.3906 -0.7812 0.0000 0
M  V30 5 C -0.3906 0.5859 0.0000 0
M  V30 6 C 0.7812 1.1719 0.0000 0
M  V30 7 C 1.9531 -0.7812 0.0000 0
M  V30 8 N 0.7812 -1.5625 0.0000 0
M  V30 9 N 1.9531 0.3906 0.0000 0
M  V30 10 H -3.5156 -0.1953 0.0000 0
M  V30 11 H -2.1484 2.1484 0.0000 0
M  V30 12 H -1.9531 -2.3438 0.0000 0
M  V30 13 H 0.9766 2.3438 0.0000 0
M  V30 14 H 2.9297 -1.3672 0.0000 0
M  V30 15 H 2.7344 0.9766 0.0000 0
M  V30 END ATOM
M  V30 BEGIN BOND
M  V30 1 3 1 2
M  V30 2 3 1 3
M  V30 3 1 1 10
M  V30 4 3 2 4
M  V30 5 1 2 12
M  V30 6 3 3 5
M  V30 7 1 3 11
M  V30 8 3 4 5
M  V30 9 1 4 8
M  V30 10 2 5 6
M  V30 11 1 6 9
M  V30 12 1 6 13
M  V30 13 1 7 8
M  V30 14 1 7 9
M  V30 15 1 7 14
M  V30 16 1 9 15
M  V30 END BOND
M  V30 END CTAB
M  END
>  <ID>
486
$$$$
Structure_487
Score 	 8.0, smilesprid 	smiles	 smilestrue 	smiles	 similartanimoto 	0	 similardice 	0

   15   16  0  0  0  0            999 V3000
M  V30 BEGIN CTAB
M  V30 COUNTS 15 16 0 0 0
M  V30 BEGIN ATOM
M  V30 1 C -2.5391 -0.1953 0.0000 0
M  V30 2 C -1.7578 -1.3672 0.0000 0
M  V30 3 C -1.7578 0.9766 0.0000 0
M  V30 4 C -0.3906 -0.7812 0.0000 0
M  V30 5 C -0.3906 0.5859 0.0000 0
M  V30 6 C 0.7812 1.1719 0.0000 0
M  V30 7 C 1.9531 -0.7812 0.0000 0
M  V30 8 N 0.7812 -1.5625 0.0000 0
M  V30 9 N 1.9531 0.3906 0.0000 0
M  V30 10 H -3.5156 -0.1953 0.0000 0
M  V30 11 H -2.1484 2.1484 0.0000 0
M  V30 12 H -1.9531 -2.3438 0.0000 0
M  V30 13 H 0.9766 2.3438 0.0000 0
M  V30 14 H 2.9297 -1.3672 0.0000 0
M  V30 15 H 2.7344 0.9766 0.0000 0
M  V30 END ATOM
M  V30 BEGIN BOND
M  V30 1 1 1 2
M  V30 2 1 1 3
M  V30 3 1 1 10
M  V30 4 1 2 4
M  V30 5 1 2 12
M  V30 6 1 3 5
M  V30 7 1 3 11
M  V30 8 1 4 5
M  V30 9 1 4 8
M  V30 10 3 5 6
M  V30 11 1 6 9
M  V30 12 1 6 13
M  V30 13 1 7 8
M  V30 14 1 7 9
M  V30 15 1 7 14
M  V30 16 1 9 15
M  V30 END BOND
M  V30 END CTAB
M  END
>  <ID>
487
$$$$
Structure_488
Score 	 6.0, smilesprid 	smiles	 smilestrue 	smiles	 similartanimoto 	0	 similardice 	0

   15   16  0  0  0  0            999 V3000
M  V30 BEGIN CTAB
M  V30 COUNTS 15 16 0 0 0
M  V30 BEGIN ATOM
M  V30 1 C -2.5391 -0.1953 0.0000 0
M  V30 2 C -1.7578 -1.3672 0.0000 0
M  V30 3 C -1.7578 0.9766 0.0000 0
M  V30 4 C -0.3906 -0.7812 0.0000 0
M  V30 5 C -0.3906 0.5859 0.0000 0
M  V30 6 C 0.7812 1.1719 0.0000 0
M  V30 7 C 1.9531 -0.7812 0.0000 0
M  V30 8 N 0.7812 -1.5625 0.0000 0
M  V30 9 N 1.9531 0.3906 0.0000 0
M  V30 10 H -3.5156 -0.1953 0.0000 0
M  V30 11 H -2.1484 2.1484 0.0000 0
M  V30 12 H -1.9531 -2.3438 0.0000 0
M  V30 13 H 0.9766 2.3438 0.0000 0
M  V30 14 H 2.9297 -1.3672 0.0000 0
M  V30 15 H 2.7344 0.9766 0.0000 0
M  V30 END ATOM
M  V30 BEGIN BOND
M  V30 1 2 1 2
M  V30 2 1 1 3
M  V30 3 1 1 10
M  V30 4 1 2 4
M  V30 5 1 2 12
M  V30 6 1 3 5
M  V30 7 1 3 11
M  V30 8 1 4 5
M  V30 9 1 4 8
M  V30 10 3 5 6
M  V30 11 1 6 9
M  V30 12 1 6 13
M  V30 13 1 7 8
M  V30 14 1 7 9
M  V30 15 1 7 14
M  V30 16 1 9 15
M  V30 END BOND
M  V30 END CTAB
M  END
>  <ID>
488
$$$$
Structure_489
Score 	 8.0, smilesprid 	smiles	 smilestrue 	smiles	 similartanimoto 	0	 similardice 	0

   15   16  0  0  0  0            999 V3000
M  V30 BEGIN CTAB
M  V30 COUNTS 15 16 0 0 0
M  V30 BEGIN ATOM
M  V30 1 C -2.5391 -0.1953 0.0000 0
M  V30 2 C -1.7578 -1.3672 0.0000 0
M  V30 3 C -1.7578 0.9766 0.0000 0
M  V30 4 C -0.3906 -0.7812 0.0000 0
M  V30 5 C -0.3906 0.5859 0.0000 0
M  V30 6 C 0.7812 1.1719 0.0000 0
M  V30 7 C 1.9531 -0.7812 0.0000 0
M  V30 8 N 0.7812 -1.5625 0.0000 0
M  V30 9 N 1.9531 0.3906 0.0000 0
M  V30 10 H -3.5156 -0.1953 0.0000 0
M  V30 11 H -2.1484 2.1484 0.0000 0
M  V30 12 H -1.9531 -2.3438 0.0000 0
M  V30 13 H 0.9766 2.3438 0.0000 0
M  V30 14 H 2.9297 -1.3672 0.0000 0
M  V30 15 H 2.7344 0.9766 0.0000 0
M  V30 END ATOM
M  V30 BEGIN BOND
M  V30 1 3 1 2
M  V30 2 1 1 3
M  V30 3 1 1 10
M  V30 4 1 2 4
M  V30 5 1 2 12
M  V30 6 1 3 5
M  V30 7 1 3 11
M  V30 8 1 4 5
M  V30 9 1 4 8
M  V30 10 3 5 6
M  V30 11 1 6 9
M  V30 12 1 6 13
M  V30 13 1 7 8
M  V30 14 1 7 9
M  V30 15 1 7 14
M  V30 16 1 9 15
M  V30 END BOND
M  V30 END CTAB
M  END
>  <ID>
489
$$$$
Structure_490
Score 	 6.0, smilesprid 	smiles	 smilestrue 	smiles	 similartanimoto 	0	 similardice 	0

   15   16  0  0  0  0            999 V3000
M  V30 BEGIN CTAB
M  V30 COUNTS 15 16 0 0 0
M  V30 BEGIN ATOM
M  V30 1 C -2.5391 -0.1953 0.0000 0
M  V30 2 C -1.7578 -1.3672 0.0000 0
M  V30 3 C -1.7578 0.9766 0.0000 0
M  V30 4 C -0.3906 -0.7812 0.0000 0
M  V30 5 C -0.3906 0.5859 0.0000 0
M  V30 6 C 0.7812 1.1719 0.0000 0
M  V30 7 C 1.9531 -0.7812 0.0000 0
M  V30 8 N 0.7812 -1.5625 0.0000 0
M  V30 9 N 1.9531 0.3906 0.0000 0
M  V30 10 H -3.5156 -0.1953 0.0000 0
M  V30 11 H -2.1484 2.1484 0.0000 0
M  V30 12 H -1.9531 -2.3438 0.0000 0
M  V30 13 H 0.9766 2.3438 0.0000 0
M  V30 14 H 2.9297 -1.3672 0.0000 0
M  V30 15 H 2.7344 0.9766 0.0000 0
M  V30 END ATOM
M  V30 BEGIN BOND
M  V30 1 1 1 2
M  V30 2 2 1 3
M  V30 3 1 1 10
M  V30 4 1 2 4
M  V30 5 1 2 12
M  V30 6 1 3 5
M  V30 7 1 3 11
M  V30 8 1 4 5
M  V30 9 1 4 8
M  V30 10 3 5 6
M  V30 11 1 6 9
M  V30 12 1 6 13
M  V30 13 1 7 8
M  V30 14 1 7 9
M  V30 15 1 7 14
M  V30 16 1 9 15
M  V30 END BOND
M  V30 END CTAB
M  END
>  <ID>
490
$$$$
Structure_491
Score 	 6.0, smilesprid 	smiles	 smilestrue 	smiles	 similartanimoto 	0	 similardice 	0

   15   16  0  0  0  0            999 V3000
M  V30 BEGIN CTAB
M  V30 COUNTS 15 16 0 0 0
M  V30 BEGIN ATOM
M  V30 1 C -2.5391 -0.1953 0.0000 0
M  V30 2 C -1.7578 -1.3672 0.0000 0
M  V30 3 C -1.7578 0.9766 0.0000 0
M  V30 4 C -0.3906 -0.7812 0.0000 0
M  V30 5 C -0.3906 0.5859 0.0000 0
M  V30 6 C 0.7812 1.1719 0.0000 0
M  V30 7 C 1.9531 -0.7812 0.0000 0
M  V30 8 N 0.7812 -1.5625 0.0000 0
M  V30 9 N 1.9531 0.3906 0.0000 0
M  V30 10 H -3.5156 -0.1953 0.0000 0
M  V30 11 H -2.1484 2.1484 0.0000 0
M  V30 12 H -1.9531 -2.3438 0.0000 0
M  V30 13 H 0.9766 2.3438 0.0000 0
M  V30 14 H 2.9297 -1.3672 0.0000 0
M  V30 15 H 2.7344 0.9766 0.0000 0
M  V30 END ATOM
M  V30 BEGIN BOND
M  V30 1 2 1 2
M  V30 2 2 1 3
M  V30 3 1 1 10
M  V30 4 1 2 4
M  V30 5 1 2 12
M  V30 6 1 3 5
M  V30 7 1 3 11
M  V30 8 1 4 5
M  V30 9 1 4 8
M  V30 10 3 5 6
M  V30 11 1 6 9
M  V30 12 1 6 13
M  V30 13 1 7 8
M  V30 14 1 7 9
M  V30 15 1 7 14
M  V30 16 1 9 15
M  V30 END BOND
M  V30 END CTAB
M  END
>  <ID>
491
$$$$
Structure_492
Score 	 8.0, smilesprid 	smiles	 smilestrue 	smiles	 similartanimoto 	0	 similardice 	0

   15   16  0  0  0  0            999 V3000
M  V30 BEGIN CTAB
M  V30 COUNTS 15 16 0 0 0
M  V30 BEGIN ATOM
M  V30 1 C -2.5391 -0.1953 0.0000 0
M  V30 2 C -1.7578 -1.3672 0.0000 0
M  V30 3 C -1.7578 0.9766 0.0000 0
M  V30 4 C -0.3906 -0.7812 0.0000 0
M  V30 5 C -0.3906 0.5859 0.0000 0
M  V30 6 C 0.7812 1.1719 0.0000 0
M  V30 7 C 1.9531 -0.7812 0.0000 0
M  V30 8 N 0.7812 -1.5625 0.0000 0
M  V30 9 N 1.9531 0.3906 0.0000 0
M  V30 10 H -3.5156 -0.1953 0.0000 0
M  V30 11 H -2.1484 2.1484 0.0000 0
M  V30 12 H -1.9531 -2.3438 0.0000 0
M  V30 13 H 0.9766 2.3438 0.0000 0
M  V30 14 H 2.9297 -1.3672 0.0000 0
M  V30 15 H 2.7344 0.9766 0.0000 0
M  V30 END ATOM
M  V30 BEGIN BOND
M  V30 1 3 1 2
M  V30 2 2 1 3
M  V30 3 1 1 10
M  V30 4 1 2 4
M  V30 5 1 2 12
M  V30 6 1 3 5
M  V30 7 1 3 11
M  V30 8 1 4 5
M  V30 9 1 4 8
M  V30 10 3 5 6
M  V30 11 1 6 9
M  V30 12 1 6 13
M  V30 13 1 7 8
M  V30 14 1 7 9
M  V30 15 1 7 14
M  V30 16 1 9 15
M  V30 END BOND
M  V30 END CTAB
M  END
>  <ID>
492
$$$$
Structure_493
Score 	 8.0, smilesprid 	smiles	 smilestrue 	smiles	 similartanimoto 	0	 similardice 	0

   15   16  0  0  0  0            999 V3000
M  V30 BEGIN CTAB
M  V30 COUNTS 15 16 0 0 0
M  V30 BEGIN ATOM
M  V30 1 C -2.5391 -0.1953 0.0000 0
M  V30 2 C -1.7578 -1.3672 0.0000 0
M  V30 3 C -1.7578 0.9766 0.0000 0
M  V30 4 C -0.3906 -0.7812 0.0000 0
M  V30 5 C -0.3906 0.5859 0.0000 0
M  V30 6 C 0.7812 1.1719 0.0000 0
M  V30 7 C 1.9531 -0.7812 0.0000 0
M  V30 8 N 0.7812 -1.5625 0.0000 0
M  V30 9 N 1.9531 0.3906 0.0000 0
M  V30 10 H -3.5156 -0.1953 0.0000 0
M  V30 11 H -2.1484 2.1484 0.0000 0
M  V30 12 H -1.9531 -2.3438 0.0000 0
M  V30 13 H 0.9766 2.3438 0.0000 0
M  V30 14 H 2.9297 -1.3672 0.0000 0
M  V30 15 H 2.7344 0.9766 0.0000 0
M  V30 END ATOM
M  V30 BEGIN BOND
M  V30 1 1 1 2
M  V30 2 3 1 3
M  V30 3 1 1 10
M  V30 4 1 2 4
M  V30 5 1 2 12
M  V30 6 1 3 5
M  V30 7 1 3 11
M  V30 8 1 4 5
M  V30 9 1 4 8
M  V30 10 3 5 6
M  V30 11 1 6 9
M  V30 12 1 6 13
M  V30 13 1 7 8
M  V30 14 1 7 9
M  V30 15 1 7 14
M  V30 16 1 9 15
M  V30 END BOND
M  V30 END CTAB
M  END
>  <ID>
493
$$$$
Structure_494
Score 	 8.0, smilesprid 	smiles	 smilestrue 	smiles	 similartanimoto 	0	 similardice 	0

   15   16  0  0  0  0            999 V3000
M  V30 BEGIN CTAB
M  V30 COUNTS 15 16 0 0 0
M  V30 BEGIN ATOM
M  V30 1 C -2.5391 -0.1953 0.0000 0
M  V30 2 C -1.7578 -1.3672 0.0000 0
M  V30 3 C -1.7578 0.9766 0.0000 0
M  V30 4 C -0.3906 -0.7812 0.0000 0
M  V30 5 C -0.3906 0.5859 0.0000 0
M  V30 6 C 0.7812 1.1719 0.0000 0
M  V30 7 C 1.9531 -0.7812 0.0000 0
M  V30 8 N 0.7812 -1.5625 0.0000 0
M  V30 9 N 1.9531 0.3906 0.0000 0
M  V30 10 H -3.5156 -0.1953 0.0000 0
M  V30 11 H -2.1484 2.1484 0.0000 0
M  V30 12 H -1.9531 -2.3438 0.0000 0
M  V30 13 H 0.9766 2.3438 0.0000 0
M  V30 14 H 2.9297 -1.3672 0.0000 0
M  V30 15 H 2.7344 0.9766 0.0000 0
M  V30 END ATOM
M  V30 BEGIN BOND
M  V30 1 2 1 2
M  V30 2 3 1 3
M  V30 3 1 1 10
M  V30 4 1 2 4
M  V30 5 1 2 12
M  V30 6 1 3 5
M  V30 7 1 3 11
M  V30 8 1 4 5
M  V30 9 1 4 8
M  V30 10 3 5 6
M  V30 11 1 6 9
M  V30 12 1 6 13
M  V30 13 1 7 8
M  V30 14 1 7 9
M  V30 15 1 7 14
M  V30 16 1 9 15
M  V30 END BOND
M  V30 END CTAB
M  END
>  <ID>
494
$$$$
Structure_495
Score 	 10.0, smilesprid 	smiles	 smilestrue 	smiles	 similartanimoto 	0	 similardice 	0

   15   16  0  0  0  0            999 V3000
M  V30 BEGIN CTAB
M  V30 COUNTS 15 16 0 0 0
M  V30 BEGIN ATOM
M  V30 1 C -2.5391 -0.1953 0.0000 0
M  V30 2 C -1.7578 -1.3672 0.0000 0
M  V30 3 C -1.7578 0.9766 0.0000 0
M  V30 4 C -0.3906 -0.7812 0.0000 0
M  V30 5 C -0.3906 0.5859 0.0000 0
M  V30 6 C 0.7812 1.1719 0.0000 0
M  V30 7 C 1.9531 -0.7812 0.0000 0
M  V30 8 N 0.7812 -1.5625 0.0000 0
M  V30 9 N 1.9531 0.3906 0.0000 0
M  V30 10 H -3.5156 -0.1953 0.0000 0
M  V30 11 H -2.1484 2.1484 0.0000 0
M  V30 12 H -1.9531 -2.3438 0.0000 0
M  V30 13 H 0.9766 2.3438 0.0000 0
M  V30 14 H 2.9297 -1.3672 0.0000 0
M  V30 15 H 2.7344 0.9766 0.0000 0
M  V30 END ATOM
M  V30 BEGIN BOND
M  V30 1 3 1 2
M  V30 2 3 1 3
M  V30 3 1 1 10
M  V30 4 1 2 4
M  V30 5 1 2 12
M  V30 6 1 3 5
M  V30 7 1 3 11
M  V30 8 1 4 5
M  V30 9 1 4 8
M  V30 10 3 5 6
M  V30 11 1 6 9
M  V30 12 1 6 13
M  V30 13 1 7 8
M  V30 14 1 7 9
M  V30 15 1 7 14
M  V30 16 1 9 15
M  V30 END BOND
M  V30 END CTAB
M  END
>  <ID>
495
$$$$
Structure_496
Score 	 8.0, smilesprid 	smiles	 smilestrue 	smiles	 similartanimoto 	0	 similardice 	0

   15   16  0  0  0  0            999 V3000
M  V30 BEGIN CTAB
M  V30 COUNTS 15 16 0 0 0
M  V30 BEGIN ATOM
M  V30 1 C -2.5391 -0.1953 0.0000 0
M  V30 2 C -1.7578 -1.3672 0.0000 0
M  V30 3 C -1.7578 0.9766 0.0000 0
M  V30 4 C -0.3906 -0.7812 0.0000 0
M  V30 5 C -0.3906 0.5859 0.0000 0
M  V30 6 C 0.7812 1.1719 0.0000 0
M  V30 7 C 1.9531 -0.7812 0.0000 0
M  V30 8 N 0.7812 -1.5625 0.0000 0
M  V30 9 N 1.9531 0.3906 0.0000 0
M  V30 10 H -3.5156 -0.1953 0.0000 0
M  V30 11 H -2.1484 2.1484 0.0000 0
M  V30 12 H -1.9531 -2.3438 0.0000 0
M  V30 13 H 0.9766 2.3438 0.0000 0
M  V30 14 H 2.9297 -1.3672 0.0000 0
M  V30 15 H 2.7344 0.9766 0.0000 0
M  V30 END ATOM
M  V30 BEGIN BOND
M  V30 1 1 1 2
M  V30 2 1 1 3
M  V30 3 1 1 10
M  V30 4 1 2 4
M  V30 5 1 2 12
M  V30 6 2 3 5
M  V30 7 1 3 11
M  V30 8 1 4 5
M  V30 9 1 4 8
M  V30 10 3 5 6
M  V30 11 1 6 9
M  V30 12 1 6 13
M  V30 13 1 7 8
M  V30 14 1 7 9
M  V30 15 1 7 14
M  V30 16 1 9 15
M  V30 END BOND
M  V30 END CTAB
M  END
>  <ID>
496
$$$$
Structure_497
Score 	 6.0, smilesprid 	smiles	 smilestrue 	smiles	 similartanimoto 	0	 similardice 	0

   15   16  0  0  0  0            999 V3000
M  V30 BEGIN CTAB
M  V30 COUNTS 15 16 0 0 0
M  V30 BEGIN ATOM
M  V30 1 C -2.5391 -0.1953 0.0000 0
M  V30 2 C -1.7578 -1.3672 0.0000 0
M  V30 3 C -1.7578 0.9766 0.0000 0
M  V30 4 C -0.3906 -0.7812 0.0000 0
M  V30 5 C -0.3906 0.5859 0.0000 0
M  V30 6 C 0.7812 1.1719 0.0000 0
M  V30 7 C 1.9531 -0.7812 0.0000 0
M  V30 8 N 0.7812 -1.5625 0.0000 0
M  V30 9 N 1.9531 0.3906 0.0000 0
M  V30 10 H -3.5156 -0.1953 0.0000 0
M  V30 11 H -2.1484 2.1484 0.0000 0
M  V30 12 H -1.9531 -2.3438 0.0000 0
M  V30 13 H 0.9766 2.3438 0.0000 0
M  V30 14 H 2.9297 -1.3672 0.0000 0
M  V30 15 H 2.7344 0.9766 0.0000 0
M  V30 END ATOM
M  V30 BEGIN BOND
M  V30 1 2 1 2
M  V30 2 1 1 3
M  V30 3 1 1 10
M  V30 4 1 2 4
M  V30 5 1 2 12
M  V30 6 2 3 5
M  V30 7 1 3 11
M  V30 8 1 4 5
M  V30 9 1 4 8
M  V30 10 3 5 6
M  V30 11 1 6 9
M  V30 12 1 6 13
M  V30 13 1 7 8
M  V30 14 1 7 9
M  V30 15 1 7 14
M  V30 16 1 9 15
M  V30 END BOND
M  V30 END CTAB
M  END
>  <ID>
497
$$$$
Structure_498
Score 	 8.0, smilesprid 	smiles	 smilestrue 	smiles	 similartanimoto 	0	 similardice 	0

   15   16  0  0  0  0            999 V3000
M  V30 BEGIN CTAB
M  V30 COUNTS 15 16 0 0 0
M  V30 BEGIN ATOM
M  V30 1 C -2.5391 -0.1953 0.0000 0
M  V30 2 C -1.7578 -1.3672 0.0000 0
M  V30 3 C -1.7578 0.9766 0.0000 0
M  V30 4 C -0.3906 -0.7812 0.0000 0
M  V30 5 C -0.3906 0.5859 0.0000 0
M  V30 6 C 0.7812 1.1719 0.0000 0
M  V30 7 C 1.9531 -0.7812 0.0000 0
M  V30 8 N 0.7812 -1.5625 0.0000 0
M  V30 9 N 1.9531 0.3906 0.0000 0
M  V30 10 H -3.5156 -0.1953 0.0000 0
M  V30 11 H -2.1484 2.1484 0.0000 0
M  V30 12 H -1.9531 -2.3438 0.0000 0
M  V30 13 H 0.9766 2.3438 0.0000 0
M  V30 14 H 2.9297 -1.3672 0.0000 0
M  V30 15 H 2.7344 0.9766 0.0000 0
M  V30 END ATOM
M  V30 BEGIN BOND
M  V30 1 3 1 2
M  V30 2 1 1 3
M  V30 3 1 1 10
M  V30 4 1 2 4
M  V30 5 1 2 12
M  V30 6 2 3 5
M  V30 7 1 3 11
M  V30 8 1 4 5
M  V30 9 1 4 8
M  V30 10 3 5 6
M  V30 11 1 6 9
M  V30 12 1 6 13
M  V30 13 1 7 8
M  V30 14 1 7 9
M  V30 15 1 7 14
M  V30 16 1 9 15
M  V30 END BOND
M  V30 END CTAB
M  END
>  <ID>
498
$$$$
Structure_499
Score 	 8.0, smilesprid 	smiles	 smilestrue 	smiles	 similartanimoto 	0	 similardice 	0

   15   16  0  0  0  0            999 V3000
M  V30 BEGIN CTAB
M  V30 COUNTS 15 16 0 0 0
M  V30 BEGIN ATOM
M  V30 1 C -2.5391 -0.1953 0.0000 0
M  V30 2 C -1.7578 -1.3672 0.0000 0
M  V30 3 C -1.7578 0.9766 0.0000 0
M  V30 4 C -0.3906 -0.7812 0.0000 0
M  V30 5 C -0.3906 0.5859 0.0000 0
M  V30 6 C 0.7812 1.1719 0.0000 0
M  V30 7 C 1.9531 -0.7812 0.0000 0
M  V30 8 N 0.7812 -1.5625 0.0000 0
M  V30 9 N 1.9531 0.3906 0.0000 0
M  V30 10 H -3.5156 -0.1953 0.0000 0
M  V30 11 H -2.1484 2.1484 0.0000 0
M  V30 12 H -1.9531 -2.3438 0.0000 0
M  V30 13 H 0.9766 2.3438 0.0000 0
M  V30 14 H 2.9297 -1.3672 0.0000 0
M  V30 15 H 2.7344 0.9766 0.0000 0
M  V30 END ATOM
M  V30 BEGIN BOND
M  V30 1 1 1 2
M  V30 2 2 1 3
M  V30 3 1 1 10
M  V30 4 1 2 4
M  V30 5 1 2 12
M  V30 6 2 3 5
M  V30 7 1 3 11
M  V30 8 1 4 5
M  V30 9 1 4 8
M  V30 10 3 5 6
M  V30 11 1 6 9
M  V30 12 1 6 13
M  V30 13 1 7 8
M  V30 14 1 7 9
M  V30 15 1 7 14
M  V30 16 1 9 15
M  V30 END BOND
M  V30 END CTAB
M  END
>  <ID>
499
$$$$
Structure_500
Score 	 8.0, smilesprid 	smiles	 smilestrue 	smiles	 similartanimoto 	0	 similardice 	0

   15   16  0  0  0  0            999 V3000
M  V30 BEGIN CTAB
M  V30 COUNTS 15 16 0 0 0
M  V30 BEGIN ATOM
M  V30 1 C -2.5391 -0.1953 0.0000 0
M  V30 2 C -1.7578 -1.3672 0.0000 0
M  V30 3 C -1.7578 0.9766 0.0000 0
M  V30 4 C -0.3906 -0.7812 0.0000 0
M  V30 5 C -0.3906 0.5859 0.0000 0
M  V30 6 C 0.7812 1.1719 0.0000 0
M  V30 7 C 1.9531 -0.7812 0.0000 0
M  V30 8 N 0.7812 -1.5625 0.0000 0
M  V30 9 N 1.9531 0.3906 0.0000 0
M  V30 10 H -3.5156 -0.1953 0.0000 0
M  V30 11 H -2.1484 2.1484 0.0000 0
M  V30 12 H -1.9531 -2.3438 0.0000 0
M  V30 13 H 0.9766 2.3438 0.0000 0
M  V30 14 H 2.9297 -1.3672 0.0000 0
M  V30 15 H 2.7344 0.9766 0.0000 0
M  V30 END ATOM
M  V30 BEGIN BOND
M  V30 1 2 1 2
M  V30 2 2 1 3
M  V30 3 1 1 10
M  V30 4 1 2 4
M  V30 5 1 2 12
M  V30 6 2 3 5
M  V30 7 1 3 11
M  V30 8 1 4 5
M  V30 9 1 4 8
M  V30 10 3 5 6
M  V30 11 1 6 9
M  V30 12 1 6 13
M  V30 13 1 7 8
M  V30 14 1 7 9
M  V30 15 1 7 14
M  V30 16 1 9 15
M  V30 END BOND
M  V30 END CTAB
M  END
>  <ID>
500
$$$$
Structure_501
Score 	 10.0, smilesprid 	smiles	 smilestrue 	smiles	 similartanimoto 	0	 similardice 	0

   15   16  0  0  0  0            999 V3000
M  V30 BEGIN CTAB
M  V30 COUNTS 15 16 0 0 0
M  V30 BEGIN ATOM
M  V30 1 C -2.5391 -0.1953 0.0000 0
M  V30 2 C -1.7578 -1.3672 0.0000 0
M  V30 3 C -1.7578 0.9766 0.0000 0
M  V30 4 C -0.3906 -0.7812 0.0000 0
M  V30 5 C -0.3906 0.5859 0.0000 0
M  V30 6 C 0.7812 1.1719 0.0000 0
M  V30 7 C 1.9531 -0.7812 0.0000 0
M  V30 8 N 0.7812 -1.5625 0.0000 0
M  V30 9 N 1.9531 0.3906 0.0000 0
M  V30 10 H -3.5156 -0.1953 0.0000 0
M  V30 11 H -2.1484 2.1484 0.0000 0
M  V30 12 H -1.9531 -2.3438 0.0000 0
M  V30 13 H 0.9766 2.3438 0.0000 0
M  V30 14 H 2.9297 -1.3672 0.0000 0
M  V30 15 H 2.7344 0.9766 0.0000 0
M  V30 END ATOM
M  V30 BEGIN BOND
M  V30 1 3 1 2
M  V30 2 2 1 3
M  V30 3 1 1 10
M  V30 4 1 2 4
M  V30 5 1 2 12
M  V30 6 2 3 5
M  V30 7 1 3 11
M  V30 8 1 4 5
M  V30 9 1 4 8
M  V30 10 3 5 6
M  V30 11 1 6 9
M  V30 12 1 6 13
M  V30 13 1 7 8
M  V30 14 1 7 9
M  V30 15 1 7 14
M  V30 16 1 9 15
M  V30 END BOND
M  V30 END CTAB
M  END
>  <ID>
501
$$$$
Structure_502
Score 	 10.0, smilesprid 	smiles	 smilestrue 	smiles	 similartanimoto 	0	 similardice 	0

   15   16  0  0  0  0            999 V3000
M  V30 BEGIN CTAB
M  V30 COUNTS 15 16 0 0 0
M  V30 BEGIN ATOM
M  V30 1 C -2.5391 -0.1953 0.0000 0
M  V30 2 C -1.7578 -1.3672 0.0000 0
M  V30 3 C -1.7578 0.9766 0.0000 0
M  V30 4 C -0.3906 -0.7812 0.0000 0
M  V30 5 C -0.3906 0.5859 0.0000 0
M  V30 6 C 0.7812 1.1719 0.0000 0
M  V30 7 C 1.9531 -0.7812 0.0000 0
M  V30 8 N 0.7812 -1.5625 0.0000 0
M  V30 9 N 1.9531 0.3906 0.0000 0
M  V30 10 H -3.5156 -0.1953 0.0000 0
M  V30 11 H -2.1484 2.1484 0.0000 0
M  V30 12 H -1.9531 -2.3438 0.0000 0
M  V30 13 H 0.9766 2.3438 0.0000 0
M  V30 14 H 2.9297 -1.3672 0.0000 0
M  V30 15 H 2.7344 0.9766 0.0000 0
M  V30 END ATOM
M  V30 BEGIN BOND
M  V30 1 1 1 2
M  V30 2 3 1 3
M  V30 3 1 1 10
M  V30 4 1 2 4
M  V30 5 1 2 12
M  V30 6 2 3 5
M  V30 7 1 3 11
M  V30 8 1 4 5
M  V30 9 1 4 8
M  V30 10 3 5 6
M  V30 11 1 6 9
M  V30 12 1 6 13
M  V30 13 1 7 8
M  V30 14 1 7 9
M  V30 15 1 7 14
M  V30 16 1 9 15
M  V30 END BOND
M  V30 END CTAB
M  END
>  <ID>
502
$$$$
Structure_503
Score 	 10.0, smilesprid 	smiles	 smilestrue 	smiles	 similartanimoto 	0	 similardice 	0

   15   16  0  0  0  0            999 V3000
M  V30 BEGIN CTAB
M  V30 COUNTS 15 16 0 0 0
M  V30 BEGIN ATOM
M  V30 1 C -2.5391 -0.1953 0.0000 0
M  V30 2 C -1.7578 -1.3672 0.0000 0
M  V30 3 C -1.7578 0.9766 0.0000 0
M  V30 4 C -0.3906 -0.7812 0.0000 0
M  V30 5 C -0.3906 0.5859 0.0000 0
M  V30 6 C 0.7812 1.1719 0.0000 0
M  V30 7 C 1.9531 -0.7812 0.0000 0
M  V30 8 N 0.7812 -1.5625 0.0000 0
M  V30 9 N 1.9531 0.3906 0.0000 0
M  V30 10 H -3.5156 -0.1953 0.0000 0
M  V30 11 H -2.1484 2.1484 0.0000 0
M  V30 12 H -1.9531 -2.3438 0.0000 0
M  V30 13 H 0.9766 2.3438 0.0000 0
M  V30 14 H 2.9297 -1.3672 0.0000 0
M  V30 15 H 2.7344 0.9766 0.0000 0
M  V30 END ATOM
M  V30 BEGIN BOND
M  V30 1 2 1 2
M  V30 2 3 1 3
M  V30 3 1 1 10
M  V30 4 1 2 4
M  V30 5 1 2 12
M  V30 6 2 3 5
M  V30 7 1 3 11
M  V30 8 1 4 5
M  V30 9 1 4 8
M  V30 10 3 5 6
M  V30 11 1 6 9
M  V30 12 1 6 13
M  V30 13 1 7 8
M  V30 14 1 7 9
M  V30 15 1 7 14
M  V30 16 1 9 15
M  V30 END BOND
M  V30 END CTAB
M  END
>  <ID>
503
$$$$
Structure_504
Score 	 12.0, smilesprid 	smiles	 smilestrue 	smiles	 similartanimoto 	0	 similardice 	0

   15   16  0  0  0  0            999 V3000
M  V30 BEGIN CTAB
M  V30 COUNTS 15 16 0 0 0
M  V30 BEGIN ATOM
M  V30 1 C -2.5391 -0.1953 0.0000 0
M  V30 2 C -1.7578 -1.3672 0.0000 0
M  V30 3 C -1.7578 0.9766 0.0000 0
M  V30 4 C -0.3906 -0.7812 0.0000 0
M  V30 5 C -0.3906 0.5859 0.0000 0
M  V30 6 C 0.7812 1.1719 0.0000 0
M  V30 7 C 1.9531 -0.7812 0.0000 0
M  V30 8 N 0.7812 -1.5625 0.0000 0
M  V30 9 N 1.9531 0.3906 0.0000 0
M  V30 10 H -3.5156 -0.1953 0.0000 0
M  V30 11 H -2.1484 2.1484 0.0000 0
M  V30 12 H -1.9531 -2.3438 0.0000 0
M  V30 13 H 0.9766 2.3438 0.0000 0
M  V30 14 H 2.9297 -1.3672 0.0000 0
M  V30 15 H 2.7344 0.9766 0.0000 0
M  V30 END ATOM
M  V30 BEGIN BOND
M  V30 1 3 1 2
M  V30 2 3 1 3
M  V30 3 1 1 10
M  V30 4 1 2 4
M  V30 5 1 2 12
M  V30 6 2 3 5
M  V30 7 1 3 11
M  V30 8 1 4 5
M  V30 9 1 4 8
M  V30 10 3 5 6
M  V30 11 1 6 9
M  V30 12 1 6 13
M  V30 13 1 7 8
M  V30 14 1 7 9
M  V30 15 1 7 14
M  V30 16 1 9 15
M  V30 END BOND
M  V30 END CTAB
M  END
>  <ID>
504
$$$$
Structure_505
Score 	 10.0, smilesprid 	smiles	 smilestrue 	smiles	 similartanimoto 	0	 similardice 	0

   15   16  0  0  0  0            999 V3000
M  V30 BEGIN CTAB
M  V30 COUNTS 15 16 0 0 0
M  V30 BEGIN ATOM
M  V30 1 C -2.5391 -0.1953 0.0000 0
M  V30 2 C -1.7578 -1.3672 0.0000 0
M  V30 3 C -1.7578 0.9766 0.0000 0
M  V30 4 C -0.3906 -0.7812 0.0000 0
M  V30 5 C -0.3906 0.5859 0.0000 0
M  V30 6 C 0.7812 1.1719 0.0000 0
M  V30 7 C 1.9531 -0.7812 0.0000 0
M  V30 8 N 0.7812 -1.5625 0.0000 0
M  V30 9 N 1.9531 0.3906 0.0000 0
M  V30 10 H -3.5156 -0.1953 0.0000 0
M  V30 11 H -2.1484 2.1484 0.0000 0
M  V30 12 H -1.9531 -2.3438 0.0000 0
M  V30 13 H 0.9766 2.3438 0.0000 0
M  V30 14 H 2.9297 -1.3672 0.0000 0
M  V30 15 H 2.7344 0.9766 0.0000 0
M  V30 END ATOM
M  V30 BEGIN BOND
M  V30 1 1 1 2
M  V30 2 1 1 3
M  V30 3 1 1 10
M  V30 4 1 2 4
M  V30 5 1 2 12
M  V30 6 3 3 5
M  V30 7 1 3 11
M  V30 8 1 4 5
M  V30 9 1 4 8
M  V30 10 3 5 6
M  V30 11 1 6 9
M  V30 12 1 6 13
M  V30 13 1 7 8
M  V30 14 1 7 9
M  V30 15 1 7 14
M  V30 16 1 9 15
M  V30 END BOND
M  V30 END CTAB
M  END
>  <ID>
505
$$$$
Structure_506
Score 	 8.0, smilesprid 	smiles	 smilestrue 	smiles	 similartanimoto 	0	 similardice 	0

   15   16  0  0  0  0            999 V3000
M  V30 BEGIN CTAB
M  V30 COUNTS 15 16 0 0 0
M  V30 BEGIN ATOM
M  V30 1 C -2.5391 -0.1953 0.0000 0
M  V30 2 C -1.7578 -1.3672 0.0000 0
M  V30 3 C -1.7578 0.9766 0.0000 0
M  V30 4 C -0.3906 -0.7812 0.0000 0
M  V30 5 C -0.3906 0.5859 0.0000 0
M  V30 6 C 0.7812 1.1719 0.0000 0
M  V30 7 C 1.9531 -0.7812 0.0000 0
M  V30 8 N 0.7812 -1.5625 0.0000 0
M  V30 9 N 1.9531 0.3906 0.0000 0
M  V30 10 H -3.5156 -0.1953 0.0000 0
M  V30 11 H -2.1484 2.1484 0.0000 0
M  V30 12 H -1.9531 -2.3438 0.0000 0
M  V30 13 H 0.9766 2.3438 0.0000 0
M  V30 14 H 2.9297 -1.3672 0.0000 0
M  V30 15 H 2.7344 0.9766 0.0000 0
M  V30 END ATOM
M  V30 BEGIN BOND
M  V30 1 2 1 2
M  V30 2 1 1 3
M  V30 3 1 1 10
M  V30 4 1 2 4
M  V30 5 1 2 12
M  V30 6 3 3 5
M  V30 7 1 3 11
M  V30 8 1 4 5
M  V30 9 1 4 8
M  V30 10 3 5 6
M  V30 11 1 6 9
M  V30 12 1 6 13
M  V30 13 1 7 8
M  V30 14 1 7 9
M  V30 15 1 7 14
M  V30 16 1 9 15
M  V30 END BOND
M  V30 END CTAB
M  END
>  <ID>
506
$$$$
Structure_507
Score 	 10.0, smilesprid 	smiles	 smilestrue 	smiles	 similartanimoto 	0	 similardice 	0

   15   16  0  0  0  0            999 V3000
M  V30 BEGIN CTAB
M  V30 COUNTS 15 16 0 0 0
M  V30 BEGIN ATOM
M  V30 1 C -2.5391 -0.1953 0.0000 0
M  V30 2 C -1.7578 -1.3672 0.0000 0
M  V30 3 C -1.7578 0.9766 0.0000 0
M  V30 4 C -0.3906 -0.7812 0.0000 0
M  V30 5 C -0.3906 0.5859 0.0000 0
M  V30 6 C 0.7812 1.1719 0.0000 0
M  V30 7 C 1.9531 -0.7812 0.0000 0
M  V30 8 N 0.7812 -1.5625 0.0000 0
M  V30 9 N 1.9531 0.3906 0.0000 0
M  V30 10 H -3.5156 -0.1953 0.0000 0
M  V30 11 H -2.1484 2.1484 0.0000 0
M  V30 12 H -1.9531 -2.3438 0.0000 0
M  V30 13 H 0.9766 2.3438 0.0000 0
M  V30 14 H 2.9297 -1.3672 0.0000 0
M  V30 15 H 2.7344 0.9766 0.0000 0
M  V30 END ATOM
M  V30 BEGIN BOND
M  V30 1 3 1 2
M  V30 2 1 1 3
M  V30 3 1 1 10
M  V30 4 1 2 4
M  V30 5 1 2 12
M  V30 6 3 3 5
M  V30 7 1 3 11
M  V30 8 1 4 5
M  V30 9 1 4 8
M  V30 10 3 5 6
M  V30 11 1 6 9
M  V30 12 1 6 13
M  V30 13 1 7 8
M  V30 14 1 7 9
M  V30 15 1 7 14
M  V30 16 1 9 15
M  V30 END BOND
M  V30 END CTAB
M  END
>  <ID>
507
$$$$
Structure_508
Score 	 10.0, smilesprid 	smiles	 smilestrue 	smiles	 similartanimoto 	0	 similardice 	0

   15   16  0  0  0  0            999 V3000
M  V30 BEGIN CTAB
M  V30 COUNTS 15 16 0 0 0
M  V30 BEGIN ATOM
M  V30 1 C -2.5391 -0.1953 0.0000 0
M  V30 2 C -1.7578 -1.3672 0.0000 0
M  V30 3 C -1.7578 0.9766 0.0000 0
M  V30 4 C -0.3906 -0.7812 0.0000 0
M  V30 5 C -0.3906 0.5859 0.0000 0
M  V30 6 C 0.7812 1.1719 0.0000 0
M  V30 7 C 1.9531 -0.7812 0.0000 0
M  V30 8 N 0.7812 -1.5625 0.0000 0
M  V30 9 N 1.9531 0.3906 0.0000 0
M  V30 10 H -3.5156 -0.1953 0.0000 0
M  V30 11 H -2.1484 2.1484 0.0000 0
M  V30 12 H -1.9531 -2.3438 0.0000 0
M  V30 13 H 0.9766 2.3438 0.0000 0
M  V30 14 H 2.9297 -1.3672 0.0000 0
M  V30 15 H 2.7344 0.9766 0.0000 0
M  V30 END ATOM
M  V30 BEGIN BOND
M  V30 1 1 1 2
M  V30 2 2 1 3
M  V30 3 1 1 10
M  V30 4 1 2 4
M  V30 5 1 2 12
M  V30 6 3 3 5
M  V30 7 1 3 11
M  V30 8 1 4 5
M  V30 9 1 4 8
M  V30 10 3 5 6
M  V30 11 1 6 9
M  V30 12 1 6 13
M  V30 13 1 7 8
M  V30 14 1 7 9
M  V30 15 1 7 14
M  V30 16 1 9 15
M  V30 END BOND
M  V30 END CTAB
M  END
>  <ID>
508
$$$$
Structure_509
Score 	 10.0, smilesprid 	smiles	 smilestrue 	smiles	 similartanimoto 	0	 similardice 	0

   15   16  0  0  0  0            999 V3000
M  V30 BEGIN CTAB
M  V30 COUNTS 15 16 0 0 0
M  V30 BEGIN ATOM
M  V30 1 C -2.5391 -0.1953 0.0000 0
M  V30 2 C -1.7578 -1.3672 0.0000 0
M  V30 3 C -1.7578 0.9766 0.0000 0
M  V30 4 C -0.3906 -0.7812 0.0000 0
M  V30 5 C -0.3906 0.5859 0.0000 0
M  V30 6 C 0.7812 1.1719 0.0000 0
M  V30 7 C 1.9531 -0.7812 0.0000 0
M  V30 8 N 0.7812 -1.5625 0.0000 0
M  V30 9 N 1.9531 0.3906 0.0000 0
M  V30 10 H -3.5156 -0.1953 0.0000 0
M  V30 11 H -2.1484 2.1484 0.0000 0
M  V30 12 H -1.9531 -2.3438 0.0000 0
M  V30 13 H 0.9766 2.3438 0.0000 0
M  V30 14 H 2.9297 -1.3672 0.0000 0
M  V30 15 H 2.7344 0.9766 0.0000 0
M  V30 END ATOM
M  V30 BEGIN BOND
M  V30 1 2 1 2
M  V30 2 2 1 3
M  V30 3 1 1 10
M  V30 4 1 2 4
M  V30 5 1 2 12
M  V30 6 3 3 5
M  V30 7 1 3 11
M  V30 8 1 4 5
M  V30 9 1 4 8
M  V30 10 3 5 6
M  V30 11 1 6 9
M  V30 12 1 6 13
M  V30 13 1 7 8
M  V30 14 1 7 9
M  V30 15 1 7 14
M  V30 16 1 9 15
M  V30 END BOND
M  V30 END CTAB
M  END
>  <ID>
509
$$$$
Structure_510
Score 	 12.0, smilesprid 	smiles	 smilestrue 	smiles	 similartanimoto 	0	 similardice 	0

   15   16  0  0  0  0            999 V3000
M  V30 BEGIN CTAB
M  V30 COUNTS 15 16 0 0 0
M  V30 BEGIN ATOM
M  V30 1 C -2.5391 -0.1953 0.0000 0
M  V30 2 C -1.7578 -1.3672 0.0000 0
M  V30 3 C -1.7578 0.9766 0.0000 0
M  V30 4 C -0.3906 -0.7812 0.0000 0
M  V30 5 C -0.3906 0.5859 0.0000 0
M  V30 6 C 0.7812 1.1719 0.0000 0
M  V30 7 C 1.9531 -0.7812 0.0000 0
M  V30 8 N 0.7812 -1.5625 0.0000 0
M  V30 9 N 1.9531 0.3906 0.0000 0
M  V30 10 H -3.5156 -0.1953 0.0000 0
M  V30 11 H -2.1484 2.1484 0.0000 0
M  V30 12 H -1.9531 -2.3438 0.0000 0
M  V30 13 H 0.9766 2.3438 0.0000 0
M  V30 14 H 2.9297 -1.3672 0.0000 0
M  V30 15 H 2.7344 0.9766 0.0000 0
M  V30 END ATOM
M  V30 BEGIN BOND
M  V30 1 3 1 2
M  V30 2 2 1 3
M  V30 3 1 1 10
M  V30 4 1 2 4
M  V30 5 1 2 12
M  V30 6 3 3 5
M  V30 7 1 3 11
M  V30 8 1 4 5
M  V30 9 1 4 8
M  V30 10 3 5 6
M  V30 11 1 6 9
M  V30 12 1 6 13
M  V30 13 1 7 8
M  V30 14 1 7 9
M  V30 15 1 7 14
M  V30 16 1 9 15
M  V30 END BOND
M  V30 END CTAB
M  END
>  <ID>
510
$$$$
Structure_511
Score 	 12.0, smilesprid 	smiles	 smilestrue 	smiles	 similartanimoto 	0	 similardice 	0

   15   16  0  0  0  0            999 V3000
M  V30 BEGIN CTAB
M  V30 COUNTS 15 16 0 0 0
M  V30 BEGIN ATOM
M  V30 1 C -2.5391 -0.1953 0.0000 0
M  V30 2 C -1.7578 -1.3672 0.0000 0
M  V30 3 C -1.7578 0.9766 0.0000 0
M  V30 4 C -0.3906 -0.7812 0.0000 0
M  V30 5 C -0.3906 0.5859 0.0000 0
M  V30 6 C 0.7812 1.1719 0.0000 0
M  V30 7 C 1.9531 -0.7812 0.0000 0
M  V30 8 N 0.7812 -1.5625 0.0000 0
M  V30 9 N 1.9531 0.3906 0.0000 0
M  V30 10 H -3.5156 -0.1953 0.0000 0
M  V30 11 H -2.1484 2.1484 0.0000 0
M  V30 12 H -1.9531 -2.3438 0.0000 0
M  V30 13 H 0.9766 2.3438 0.0000 0
M  V30 14 H 2.9297 -1.3672 0.0000 0
M  V30 15 H 2.7344 0.9766 0.0000 0
M  V30 END ATOM
M  V30 BEGIN BOND
M  V30 1 1 1 2
M  V30 2 3 1 3
M  V30 3 1 1 10
M  V30 4 1 2 4
M  V30 5 1 2 12
M  V30 6 3 3 5
M  V30 7 1 3 11
M  V30 8 1 4 5
M  V30 9 1 4 8
M  V30 10 3 5 6
M  V30 11 1 6 9
M  V30 12 1 6 13
M  V30 13 1 7 8
M  V30 14 1 7 9
M  V30 15 1 7 14
M  V30 16 1 9 15
M  V30 END BOND
M  V30 END CTAB
M  END
>  <ID>
511
$$$$
Structure_512
Score 	 12.0, smilesprid 	smiles	 smilestrue 	smiles	 similartanimoto 	0	 similardice 	0

   15   16  0  0  0  0            999 V3000
M  V30 BEGIN CTAB
M  V30 COUNTS 15 16 0 0 0
M  V30 BEGIN ATOM
M  V30 1 C -2.5391 -0.1953 0.0000 0
M  V30 2 C -1.7578 -1.3672 0.0000 0
M  V30 3 C -1.7578 0.9766 0.0000 0
M  V30 4 C -0.3906 -0.7812 0.0000 0
M  V30 5 C -0.3906 0.5859 0.0000 0
M  V30 6 C 0.7812 1.1719 0.0000 0
M  V30 7 C 1.9531 -0.7812 0.0000 0
M  V30 8 N 0.7812 -1.5625 0.0000 0
M  V30 9 N 1.9531 0.3906 0.0000 0
M  V30 10 H -3.5156 -0.1953 0.0000 0
M  V30 11 H -2.1484 2.1484 0.0000 0
M  V30 12 H -1.9531 -2.3438 0.0000 0
M  V30 13 H 0.9766 2.3438 0.0000 0
M  V30 14 H 2.9297 -1.3672 0.0000 0
M  V30 15 H 2.7344 0.9766 0.0000 0
M  V30 END ATOM
M  V30 BEGIN BOND
M  V30 1 2 1 2
M  V30 2 3 1 3
M  V30 3 1 1 10
M  V30 4 1 2 4
M  V30 5 1 2 12
M  V30 6 3 3 5
M  V30 7 1 3 11
M  V30 8 1 4 5
M  V30 9 1 4 8
M  V30 10 3 5 6
M  V30 11 1 6 9
M  V30 12 1 6 13
M  V30 13 1 7 8
M  V30 14 1 7 9
M  V30 15 1 7 14
M  V30 16 1 9 15
M  V30 END BOND
M  V30 END CTAB
M  END
>  <ID>
512
$$$$
Structure_513
Score 	 14.0, smilesprid 	smiles	 smilestrue 	smiles	 similartanimoto 	0	 similardice 	0

   15   16  0  0  0  0            999 V3000
M  V30 BEGIN CTAB
M  V30 COUNTS 15 16 0 0 0
M  V30 BEGIN ATOM
M  V30 1 C -2.5391 -0.1953 0.0000 0
M  V30 2 C -1.7578 -1.3672 0.0000 0
M  V30 3 C -1.7578 0.9766 0.0000 0
M  V30 4 C -0.3906 -0.7812 0.0000 0
M  V30 5 C -0.3906 0.5859 0.0000 0
M  V30 6 C 0.7812 1.1719 0.0000 0
M  V30 7 C 1.9531 -0.7812 0.0000 0
M  V30 8 N 0.7812 -1.5625 0.0000 0
M  V30 9 N 1.9531 0.3906 0.0000 0
M  V30 10 H -3.5156 -0.1953 0.0000 0
M  V30 11 H -2.1484 2.1484 0.0000 0
M  V30 12 H -1.9531 -2.3438 0.0000 0
M  V30 13 H 0.9766 2.3438 0.0000 0
M  V30 14 H 2.9297 -1.3672 0.0000 0
M  V30 15 H 2.7344 0.9766 0.0000 0
M  V30 END ATOM
M  V30 BEGIN BOND
M  V30 1 3 1 2
M  V30 2 3 1 3
M  V30 3 1 1 10
M  V30 4 1 2 4
M  V30 5 1 2 12
M  V30 6 3 3 5
M  V30 7 1 3 11
M  V30 8 1 4 5
M  V30 9 1 4 8
M  V30 10 3 5 6
M  V30 11 1 6 9
M  V30 12 1 6 13
M  V30 13 1 7 8
M  V30 14 1 7 9
M  V30 15 1 7 14
M  V30 16 1 9 15
M  V30 END BOND
M  V30 END CTAB
M  END
>  <ID>
513
$$$$
Structure_514
Score 	 6.0, smilesprid 	smiles	 smilestrue 	smiles	 similartanimoto 	0	 similardice 	0

   15   16  0  0  0  0            999 V3000
M  V30 BEGIN CTAB
M  V30 COUNTS 15 16 0 0 0
M  V30 BEGIN ATOM
M  V30 1 C -2.5391 -0.1953 0.0000 0
M  V30 2 C -1.7578 -1.3672 0.0000 0
M  V30 3 C -1.7578 0.9766 0.0000 0
M  V30 4 C -0.3906 -0.7812 0.0000 0
M  V30 5 C -0.3906 0.5859 0.0000 0
M  V30 6 C 0.7812 1.1719 0.0000 0
M  V30 7 C 1.9531 -0.7812 0.0000 0
M  V30 8 N 0.7812 -1.5625 0.0000 0
M  V30 9 N 1.9531 0.3906 0.0000 0
M  V30 10 H -3.5156 -0.1953 0.0000 0
M  V30 11 H -2.1484 2.1484 0.0000 0
M  V30 12 H -1.9531 -2.3438 0.0000 0
M  V30 13 H 0.9766 2.3438 0.0000 0
M  V30 14 H 2.9297 -1.3672 0.0000 0
M  V30 15 H 2.7344 0.9766 0.0000 0
M  V30 END ATOM
M  V30 BEGIN BOND
M  V30 1 1 1 2
M  V30 2 1 1 3
M  V30 3 1 1 10
M  V30 4 2 2 4
M  V30 5 1 2 12
M  V30 6 1 3 5
M  V30 7 1 3 11
M  V30 8 1 4 5
M  V30 9 1 4 8
M  V30 10 3 5 6
M  V30 11 1 6 9
M  V30 12 1 6 13
M  V30 13 1 7 8
M  V30 14 1 7 9
M  V30 15 1 7 14
M  V30 16 1 9 15
M  V30 END BOND
M  V30 END CTAB
M  END
>  <ID>
514
$$$$
Structure_515
Score 	 6.0, smilesprid 	smiles	 smilestrue 	smiles	 similartanimoto 	0	 similardice 	0

   15   16  0  0  0  0            999 V3000
M  V30 BEGIN CTAB
M  V30 COUNTS 15 16 0 0 0
M  V30 BEGIN ATOM
M  V30 1 C -2.5391 -0.1953 0.0000 0
M  V30 2 C -1.7578 -1.3672 0.0000 0
M  V30 3 C -1.7578 0.9766 0.0000 0
M  V30 4 C -0.3906 -0.7812 0.0000 0
M  V30 5 C -0.3906 0.5859 0.0000 0
M  V30 6 C 0.7812 1.1719 0.0000 0
M  V30 7 C 1.9531 -0.7812 0.0000 0
M  V30 8 N 0.7812 -1.5625 0.0000 0
M  V30 9 N 1.9531 0.3906 0.0000 0
M  V30 10 H -3.5156 -0.1953 0.0000 0
M  V30 11 H -2.1484 2.1484 0.0000 0
M  V30 12 H -1.9531 -2.3438 0.0000 0
M  V30 13 H 0.9766 2.3438 0.0000 0
M  V30 14 H 2.9297 -1.3672 0.0000 0
M  V30 15 H 2.7344 0.9766 0.0000 0
M  V30 END ATOM
M  V30 BEGIN BOND
M  V30 1 2 1 2
M  V30 2 1 1 3
M  V30 3 1 1 10
M  V30 4 2 2 4
M  V30 5 1 2 12
M  V30 6 1 3 5
M  V30 7 1 3 11
M  V30 8 1 4 5
M  V30 9 1 4 8
M  V30 10 3 5 6
M  V30 11 1 6 9
M  V30 12 1 6 13
M  V30 13 1 7 8
M  V30 14 1 7 9
M  V30 15 1 7 14
M  V30 16 1 9 15
M  V30 END BOND
M  V30 END CTAB
M  END
>  <ID>
515
$$$$
Structure_516
Score 	 8.0, smilesprid 	smiles	 smilestrue 	smiles	 similartanimoto 	0	 similardice 	0

   15   16  0  0  0  0            999 V3000
M  V30 BEGIN CTAB
M  V30 COUNTS 15 16 0 0 0
M  V30 BEGIN ATOM
M  V30 1 C -2.5391 -0.1953 0.0000 0
M  V30 2 C -1.7578 -1.3672 0.0000 0
M  V30 3 C -1.7578 0.9766 0.0000 0
M  V30 4 C -0.3906 -0.7812 0.0000 0
M  V30 5 C -0.3906 0.5859 0.0000 0
M  V30 6 C 0.7812 1.1719 0.0000 0
M  V30 7 C 1.9531 -0.7812 0.0000 0
M  V30 8 N 0.7812 -1.5625 0.0000 0
M  V30 9 N 1.9531 0.3906 0.0000 0
M  V30 10 H -3.5156 -0.1953 0.0000 0
M  V30 11 H -2.1484 2.1484 0.0000 0
M  V30 12 H -1.9531 -2.3438 0.0000 0
M  V30 13 H 0.9766 2.3438 0.0000 0
M  V30 14 H 2.9297 -1.3672 0.0000 0
M  V30 15 H 2.7344 0.9766 0.0000 0
M  V30 END ATOM
M  V30 BEGIN BOND
M  V30 1 3 1 2
M  V30 2 1 1 3
M  V30 3 1 1 10
M  V30 4 2 2 4
M  V30 5 1 2 12
M  V30 6 1 3 5
M  V30 7 1 3 11
M  V30 8 1 4 5
M  V30 9 1 4 8
M  V30 10 3 5 6
M  V30 11 1 6 9
M  V30 12 1 6 13
M  V30 13 1 7 8
M  V30 14 1 7 9
M  V30 15 1 7 14
M  V30 16 1 9 15
M  V30 END BOND
M  V30 END CTAB
M  END
>  <ID>
516
$$$$
Structure_517
Score 	 4.0, smilesprid 	smiles	 smilestrue 	smiles	 similartanimoto 	0	 similardice 	0

   15   16  0  0  0  0            999 V3000
M  V30 BEGIN CTAB
M  V30 COUNTS 15 16 0 0 0
M  V30 BEGIN ATOM
M  V30 1 C -2.5391 -0.1953 0.0000 0
M  V30 2 C -1.7578 -1.3672 0.0000 0
M  V30 3 C -1.7578 0.9766 0.0000 0
M  V30 4 C -0.3906 -0.7812 0.0000 0
M  V30 5 C -0.3906 0.5859 0.0000 0
M  V30 6 C 0.7812 1.1719 0.0000 0
M  V30 7 C 1.9531 -0.7812 0.0000 0
M  V30 8 N 0.7812 -1.5625 0.0000 0
M  V30 9 N 1.9531 0.3906 0.0000 0
M  V30 10 H -3.5156 -0.1953 0.0000 0
M  V30 11 H -2.1484 2.1484 0.0000 0
M  V30 12 H -1.9531 -2.3438 0.0000 0
M  V30 13 H 0.9766 2.3438 0.0000 0
M  V30 14 H 2.9297 -1.3672 0.0000 0
M  V30 15 H 2.7344 0.9766 0.0000 0
M  V30 END ATOM
M  V30 BEGIN BOND
M  V30 1 1 1 2
M  V30 2 2 1 3
M  V30 3 1 1 10
M  V30 4 2 2 4
M  V30 5 1 2 12
M  V30 6 1 3 5
M  V30 7 1 3 11
M  V30 8 1 4 5
M  V30 9 1 4 8
M  V30 10 3 5 6
M  V30 11 1 6 9
M  V30 12 1 6 13
M  V30 13 1 7 8
M  V30 14 1 7 9
M  V30 15 1 7 14
M  V30 16 1 9 15
M  V30 END BOND
M  V30 END CTAB
M  END
>  <ID>
517
$$$$
Structure_518
Score 	 6.0, smilesprid 	smiles	 smilestrue 	smiles	 similartanimoto 	0	 similardice 	0

   15   16  0  0  0  0            999 V3000
M  V30 BEGIN CTAB
M  V30 COUNTS 15 16 0 0 0
M  V30 BEGIN ATOM
M  V30 1 C -2.5391 -0.1953 0.0000 0
M  V30 2 C -1.7578 -1.3672 0.0000 0
M  V30 3 C -1.7578 0.9766 0.0000 0
M  V30 4 C -0.3906 -0.7812 0.0000 0
M  V30 5 C -0.3906 0.5859 0.0000 0
M  V30 6 C 0.7812 1.1719 0.0000 0
M  V30 7 C 1.9531 -0.7812 0.0000 0
M  V30 8 N 0.7812 -1.5625 0.0000 0
M  V30 9 N 1.9531 0.3906 0.0000 0
M  V30 10 H -3.5156 -0.1953 0.0000 0
M  V30 11 H -2.1484 2.1484 0.0000 0
M  V30 12 H -1.9531 -2.3438 0.0000 0
M  V30 13 H 0.9766 2.3438 0.0000 0
M  V30 14 H 2.9297 -1.3672 0.0000 0
M  V30 15 H 2.7344 0.9766 0.0000 0
M  V30 END ATOM
M  V30 BEGIN BOND
M  V30 1 2 1 2
M  V30 2 2 1 3
M  V30 3 1 1 10
M  V30 4 2 2 4
M  V30 5 1 2 12
M  V30 6 1 3 5
M  V30 7 1 3 11
M  V30 8 1 4 5
M  V30 9 1 4 8
M  V30 10 3 5 6
M  V30 11 1 6 9
M  V30 12 1 6 13
M  V30 13 1 7 8
M  V30 14 1 7 9
M  V30 15 1 7 14
M  V30 16 1 9 15
M  V30 END BOND
M  V30 END CTAB
M  END
>  <ID>
518
$$$$
Structure_519
Score 	 8.0, smilesprid 	smiles	 smilestrue 	smiles	 similartanimoto 	0	 similardice 	0

   15   16  0  0  0  0            999 V3000
M  V30 BEGIN CTAB
M  V30 COUNTS 15 16 0 0 0
M  V30 BEGIN ATOM
M  V30 1 C -2.5391 -0.1953 0.0000 0
M  V30 2 C -1.7578 -1.3672 0.0000 0
M  V30 3 C -1.7578 0.9766 0.0000 0
M  V30 4 C -0.3906 -0.7812 0.0000 0
M  V30 5 C -0.3906 0.5859 0.0000 0
M  V30 6 C 0.7812 1.1719 0.0000 0
M  V30 7 C 1.9531 -0.7812 0.0000 0
M  V30 8 N 0.7812 -1.5625 0.0000 0
M  V30 9 N 1.9531 0.3906 0.0000 0
M  V30 10 H -3.5156 -0.1953 0.0000 0
M  V30 11 H -2.1484 2.1484 0.0000 0
M  V30 12 H -1.9531 -2.3438 0.0000 0
M  V30 13 H 0.9766 2.3438 0.0000 0
M  V30 14 H 2.9297 -1.3672 0.0000 0
M  V30 15 H 2.7344 0.9766 0.0000 0
M  V30 END ATOM
M  V30 BEGIN BOND
M  V30 1 3 1 2
M  V30 2 2 1 3
M  V30 3 1 1 10
M  V30 4 2 2 4
M  V30 5 1 2 12
M  V30 6 1 3 5
M  V30 7 1 3 11
M  V30 8 1 4 5
M  V30 9 1 4 8
M  V30 10 3 5 6
M  V30 11 1 6 9
M  V30 12 1 6 13
M  V30 13 1 7 8
M  V30 14 1 7 9
M  V30 15 1 7 14
M  V30 16 1 9 15
M  V30 END BOND
M  V30 END CTAB
M  END
>  <ID>
519
$$$$
Structure_520
Score 	 6.0, smilesprid 	smiles	 smilestrue 	smiles	 similartanimoto 	0	 similardice 	0

   15   16  0  0  0  0            999 V3000
M  V30 BEGIN CTAB
M  V30 COUNTS 15 16 0 0 0
M  V30 BEGIN ATOM
M  V30 1 C -2.5391 -0.1953 0.0000 0
M  V30 2 C -1.7578 -1.3672 0.0000 0
M  V30 3 C -1.7578 0.9766 0.0000 0
M  V30 4 C -0.3906 -0.7812 0.0000 0
M  V30 5 C -0.3906 0.5859 0.0000 0
M  V30 6 C 0.7812 1.1719 0.0000 0
M  V30 7 C 1.9531 -0.7812 0.0000 0
M  V30 8 N 0.7812 -1.5625 0.0000 0
M  V30 9 N 1.9531 0.3906 0.0000 0
M  V30 10 H -3.5156 -0.1953 0.0000 0
M  V30 11 H -2.1484 2.1484 0.0000 0
M  V30 12 H -1.9531 -2.3438 0.0000 0
M  V30 13 H 0.9766 2.3438 0.0000 0
M  V30 14 H 2.9297 -1.3672 0.0000 0
M  V30 15 H 2.7344 0.9766 0.0000 0
M  V30 END ATOM
M  V30 BEGIN BOND
M  V30 1 1 1 2
M  V30 2 3 1 3
M  V30 3 1 1 10
M  V30 4 2 2 4
M  V30 5 1 2 12
M  V30 6 1 3 5
M  V30 7 1 3 11
M  V30 8 1 4 5
M  V30 9 1 4 8
M  V30 10 3 5 6
M  V30 11 1 6 9
M  V30 12 1 6 13
M  V30 13 1 7 8
M  V30 14 1 7 9
M  V30 15 1 7 14
M  V30 16 1 9 15
M  V30 END BOND
M  V30 END CTAB
M  END
>  <ID>
520
$$$$
Structure_521
Score 	 8.0, smilesprid 	smiles	 smilestrue 	smiles	 similartanimoto 	0	 similardice 	0

   15   16  0  0  0  0            999 V3000
M  V30 BEGIN CTAB
M  V30 COUNTS 15 16 0 0 0
M  V30 BEGIN ATOM
M  V30 1 C -2.5391 -0.1953 0.0000 0
M  V30 2 C -1.7578 -1.3672 0.0000 0
M  V30 3 C -1.7578 0.9766 0.0000 0
M  V30 4 C -0.3906 -0.7812 0.0000 0
M  V30 5 C -0.3906 0.5859 0.0000 0
M  V30 6 C 0.7812 1.1719 0.0000 0
M  V30 7 C 1.9531 -0.7812 0.0000 0
M  V30 8 N 0.7812 -1.5625 0.0000 0
M  V30 9 N 1.9531 0.3906 0.0000 0
M  V30 10 H -3.5156 -0.1953 0.0000 0
M  V30 11 H -2.1484 2.1484 0.0000 0
M  V30 12 H -1.9531 -2.3438 0.0000 0
M  V30 13 H 0.9766 2.3438 0.0000 0
M  V30 14 H 2.9297 -1.3672 0.0000 0
M  V30 15 H 2.7344 0.9766 0.0000 0
M  V30 END ATOM
M  V30 BEGIN BOND
M  V30 1 2 1 2
M  V30 2 3 1 3
M  V30 3 1 1 10
M  V30 4 2 2 4
M  V30 5 1 2 12
M  V30 6 1 3 5
M  V30 7 1 3 11
M  V30 8 1 4 5
M  V30 9 1 4 8
M  V30 10 3 5 6
M  V30 11 1 6 9
M  V30 12 1 6 13
M  V30 13 1 7 8
M  V30 14 1 7 9
M  V30 15 1 7 14
M  V30 16 1 9 15
M  V30 END BOND
M  V30 END CTAB
M  END
>  <ID>
521
$$$$
Structure_522
Score 	 10.0, smilesprid 	smiles	 smilestrue 	smiles	 similartanimoto 	0	 similardice 	0

   15   16  0  0  0  0            999 V3000
M  V30 BEGIN CTAB
M  V30 COUNTS 15 16 0 0 0
M  V30 BEGIN ATOM
M  V30 1 C -2.5391 -0.1953 0.0000 0
M  V30 2 C -1.7578 -1.3672 0.0000 0
M  V30 3 C -1.7578 0.9766 0.0000 0
M  V30 4 C -0.3906 -0.7812 0.0000 0
M  V30 5 C -0.3906 0.5859 0.0000 0
M  V30 6 C 0.7812 1.1719 0.0000 0
M  V30 7 C 1.9531 -0.7812 0.0000 0
M  V30 8 N 0.7812 -1.5625 0.0000 0
M  V30 9 N 1.9531 0.3906 0.0000 0
M  V30 10 H -3.5156 -0.1953 0.0000 0
M  V30 11 H -2.1484 2.1484 0.0000 0
M  V30 12 H -1.9531 -2.3438 0.0000 0
M  V30 13 H 0.9766 2.3438 0.0000 0
M  V30 14 H 2.9297 -1.3672 0.0000 0
M  V30 15 H 2.7344 0.9766 0.0000 0
M  V30 END ATOM
M  V30 BEGIN BOND
M  V30 1 3 1 2
M  V30 2 3 1 3
M  V30 3 1 1 10
M  V30 4 2 2 4
M  V30 5 1 2 12
M  V30 6 1 3 5
M  V30 7 1 3 11
M  V30 8 1 4 5
M  V30 9 1 4 8
M  V30 10 3 5 6
M  V30 11 1 6 9
M  V30 12 1 6 13
M  V30 13 1 7 8
M  V30 14 1 7 9
M  V30 15 1 7 14
M  V30 16 1 9 15
M  V30 END BOND
M  V30 END CTAB
M  END
>  <ID>
522
$$$$
Structure_523
Score 	 6.0, smilesprid 	smiles	 smilestrue 	smiles	 similartanimoto 	0	 similardice 	0

   15   16  0  0  0  0            999 V3000
M  V30 BEGIN CTAB
M  V30 COUNTS 15 16 0 0 0
M  V30 BEGIN ATOM
M  V30 1 C -2.5391 -0.1953 0.0000 0
M  V30 2 C -1.7578 -1.3672 0.0000 0
M  V30 3 C -1.7578 0.9766 0.0000 0
M  V30 4 C -0.3906 -0.7812 0.0000 0
M  V30 5 C -0.3906 0.5859 0.0000 0
M  V30 6 C 0.7812 1.1719 0.0000 0
M  V30 7 C 1.9531 -0.7812 0.0000 0
M  V30 8 N 0.7812 -1.5625 0.0000 0
M  V30 9 N 1.9531 0.3906 0.0000 0
M  V30 10 H -3.5156 -0.1953 0.0000 0
M  V30 11 H -2.1484 2.1484 0.0000 0
M  V30 12 H -1.9531 -2.3438 0.0000 0
M  V30 13 H 0.9766 2.3438 0.0000 0
M  V30 14 H 2.9297 -1.3672 0.0000 0
M  V30 15 H 2.7344 0.9766 0.0000 0
M  V30 END ATOM
M  V30 BEGIN BOND
M  V30 1 1 1 2
M  V30 2 1 1 3
M  V30 3 1 1 10
M  V30 4 2 2 4
M  V30 5 1 2 12
M  V30 6 2 3 5
M  V30 7 1 3 11
M  V30 8 1 4 5
M  V30 9 1 4 8
M  V30 10 3 5 6
M  V30 11 1 6 9
M  V30 12 1 6 13
M  V30 13 1 7 8
M  V30 14 1 7 9
M  V30 15 1 7 14
M  V30 16 1 9 15
M  V30 END BOND
M  V30 END CTAB
M  END
>  <ID>
523
$$$$
Structure_524
Score 	 6.0, smilesprid 	smiles	 smilestrue 	smiles	 similartanimoto 	0	 similardice 	0

   15   16  0  0  0  0            999 V3000
M  V30 BEGIN CTAB
M  V30 COUNTS 15 16 0 0 0
M  V30 BEGIN ATOM
M  V30 1 C -2.5391 -0.1953 0.0000 0
M  V30 2 C -1.7578 -1.3672 0.0000 0
M  V30 3 C -1.7578 0.9766 0.0000 0
M  V30 4 C -0.3906 -0.7812 0.0000 0
M  V30 5 C -0.3906 0.5859 0.0000 0
M  V30 6 C 0.7812 1.1719 0.0000 0
M  V30 7 C 1.9531 -0.7812 0.0000 0
M  V30 8 N 0.7812 -1.5625 0.0000 0
M  V30 9 N 1.9531 0.3906 0.0000 0
M  V30 10 H -3.5156 -0.1953 0.0000 0
M  V30 11 H -2.1484 2.1484 0.0000 0
M  V30 12 H -1.9531 -2.3438 0.0000 0
M  V30 13 H 0.9766 2.3438 0.0000 0
M  V30 14 H 2.9297 -1.3672 0.0000 0
M  V30 15 H 2.7344 0.9766 0.0000 0
M  V30 END ATOM
M  V30 BEGIN BOND
M  V30 1 2 1 2
M  V30 2 1 1 3
M  V30 3 1 1 10
M  V30 4 2 2 4
M  V30 5 1 2 12
M  V30 6 2 3 5
M  V30 7 1 3 11
M  V30 8 1 4 5
M  V30 9 1 4 8
M  V30 10 3 5 6
M  V30 11 1 6 9
M  V30 12 1 6 13
M  V30 13 1 7 8
M  V30 14 1 7 9
M  V30 15 1 7 14
M  V30 16 1 9 15
M  V30 END BOND
M  V30 END CTAB
M  END
>  <ID>
524
$$$$
Structure_525
Score 	 8.0, smilesprid 	smiles	 smilestrue 	smiles	 similartanimoto 	0	 similardice 	0

   15   16  0  0  0  0            999 V3000
M  V30 BEGIN CTAB
M  V30 COUNTS 15 16 0 0 0
M  V30 BEGIN ATOM
M  V30 1 C -2.5391 -0.1953 0.0000 0
M  V30 2 C -1.7578 -1.3672 0.0000 0
M  V30 3 C -1.7578 0.9766 0.0000 0
M  V30 4 C -0.3906 -0.7812 0.0000 0
M  V30 5 C -0.3906 0.5859 0.0000 0
M  V30 6 C 0.7812 1.1719 0.0000 0
M  V30 7 C 1.9531 -0.7812 0.0000 0
M  V30 8 N 0.7812 -1.5625 0.0000 0
M  V30 9 N 1.9531 0.3906 0.0000 0
M  V30 10 H -3.5156 -0.1953 0.0000 0
M  V30 11 H -2.1484 2.1484 0.0000 0
M  V30 12 H -1.9531 -2.3438 0.0000 0
M  V30 13 H 0.9766 2.3438 0.0000 0
M  V30 14 H 2.9297 -1.3672 0.0000 0
M  V30 15 H 2.7344 0.9766 0.0000 0
M  V30 END ATOM
M  V30 BEGIN BOND
M  V30 1 3 1 2
M  V30 2 1 1 3
M  V30 3 1 1 10
M  V30 4 2 2 4
M  V30 5 1 2 12
M  V30 6 2 3 5
M  V30 7 1 3 11
M  V30 8 1 4 5
M  V30 9 1 4 8
M  V30 10 3 5 6
M  V30 11 1 6 9
M  V30 12 1 6 13
M  V30 13 1 7 8
M  V30 14 1 7 9
M  V30 15 1 7 14
M  V30 16 1 9 15
M  V30 END BOND
M  V30 END CTAB
M  END
>  <ID>
525
$$$$
Structure_526
Score 	 6.0, smilesprid 	smiles	 smilestrue 	smiles	 similartanimoto 	0	 similardice 	0

   15   16  0  0  0  0            999 V3000
M  V30 BEGIN CTAB
M  V30 COUNTS 15 16 0 0 0
M  V30 BEGIN ATOM
M  V30 1 C -2.5391 -0.1953 0.0000 0
M  V30 2 C -1.7578 -1.3672 0.0000 0
M  V30 3 C -1.7578 0.9766 0.0000 0
M  V30 4 C -0.3906 -0.7812 0.0000 0
M  V30 5 C -0.3906 0.5859 0.0000 0
M  V30 6 C 0.7812 1.1719 0.0000 0
M  V30 7 C 1.9531 -0.7812 0.0000 0
M  V30 8 N 0.7812 -1.5625 0.0000 0
M  V30 9 N 1.9531 0.3906 0.0000 0
M  V30 10 H -3.5156 -0.1953 0.0000 0
M  V30 11 H -2.1484 2.1484 0.0000 0
M  V30 12 H -1.9531 -2.3438 0.0000 0
M  V30 13 H 0.9766 2.3438 0.0000 0
M  V30 14 H 2.9297 -1.3672 0.0000 0
M  V30 15 H 2.7344 0.9766 0.0000 0
M  V30 END ATOM
M  V30 BEGIN BOND
M  V30 1 1 1 2
M  V30 2 2 1 3
M  V30 3 1 1 10
M  V30 4 2 2 4
M  V30 5 1 2 12
M  V30 6 2 3 5
M  V30 7 1 3 11
M  V30 8 1 4 5
M  V30 9 1 4 8
M  V30 10 3 5 6
M  V30 11 1 6 9
M  V30 12 1 6 13
M  V30 13 1 7 8
M  V30 14 1 7 9
M  V30 15 1 7 14
M  V30 16 1 9 15
M  V30 END BOND
M  V30 END CTAB
M  END
>  <ID>
526
$$$$
Structure_527
Score 	 8.0, smilesprid 	smiles	 smilestrue 	smiles	 similartanimoto 	0	 similardice 	0

   15   16  0  0  0  0            999 V3000
M  V30 BEGIN CTAB
M  V30 COUNTS 15 16 0 0 0
M  V30 BEGIN ATOM
M  V30 1 C -2.5391 -0.1953 0.0000 0
M  V30 2 C -1.7578 -1.3672 0.0000 0
M  V30 3 C -1.7578 0.9766 0.0000 0
M  V30 4 C -0.3906 -0.7812 0.0000 0
M  V30 5 C -0.3906 0.5859 0.0000 0
M  V30 6 C 0.7812 1.1719 0.0000 0
M  V30 7 C 1.9531 -0.7812 0.0000 0
M  V30 8 N 0.7812 -1.5625 0.0000 0
M  V30 9 N 1.9531 0.3906 0.0000 0
M  V30 10 H -3.5156 -0.1953 0.0000 0
M  V30 11 H -2.1484 2.1484 0.0000 0
M  V30 12 H -1.9531 -2.3438 0.0000 0
M  V30 13 H 0.9766 2.3438 0.0000 0
M  V30 14 H 2.9297 -1.3672 0.0000 0
M  V30 15 H 2.7344 0.9766 0.0000 0
M  V30 END ATOM
M  V30 BEGIN BOND
M  V30 1 2 1 2
M  V30 2 2 1 3
M  V30 3 1 1 10
M  V30 4 2 2 4
M  V30 5 1 2 12
M  V30 6 2 3 5
M  V30 7 1 3 11
M  V30 8 1 4 5
M  V30 9 1 4 8
M  V30 10 3 5 6
M  V30 11 1 6 9
M  V30 12 1 6 13
M  V30 13 1 7 8
M  V30 14 1 7 9
M  V30 15 1 7 14
M  V30 16 1 9 15
M  V30 END BOND
M  V30 END CTAB
M  END
>  <ID>
527
$$$$
Structure_528
Score 	 10.0, smilesprid 	smiles	 smilestrue 	smiles	 similartanimoto 	0	 similardice 	0

   15   16  0  0  0  0            999 V3000
M  V30 BEGIN CTAB
M  V30 COUNTS 15 16 0 0 0
M  V30 BEGIN ATOM
M  V30 1 C -2.5391 -0.1953 0.0000 0
M  V30 2 C -1.7578 -1.3672 0.0000 0
M  V30 3 C -1.7578 0.9766 0.0000 0
M  V30 4 C -0.3906 -0.7812 0.0000 0
M  V30 5 C -0.3906 0.5859 0.0000 0
M  V30 6 C 0.7812 1.1719 0.0000 0
M  V30 7 C 1.9531 -0.7812 0.0000 0
M  V30 8 N 0.7812 -1.5625 0.0000 0
M  V30 9 N 1.9531 0.3906 0.0000 0
M  V30 10 H -3.5156 -0.1953 0.0000 0
M  V30 11 H -2.1484 2.1484 0.0000 0
M  V30 12 H -1.9531 -2.3438 0.0000 0
M  V30 13 H 0.9766 2.3438 0.0000 0
M  V30 14 H 2.9297 -1.3672 0.0000 0
M  V30 15 H 2.7344 0.9766 0.0000 0
M  V30 END ATOM
M  V30 BEGIN BOND
M  V30 1 3 1 2
M  V30 2 2 1 3
M  V30 3 1 1 10
M  V30 4 2 2 4
M  V30 5 1 2 12
M  V30 6 2 3 5
M  V30 7 1 3 11
M  V30 8 1 4 5
M  V30 9 1 4 8
M  V30 10 3 5 6
M  V30 11 1 6 9
M  V30 12 1 6 13
M  V30 13 1 7 8
M  V30 14 1 7 9
M  V30 15 1 7 14
M  V30 16 1 9 15
M  V30 END BOND
M  V30 END CTAB
M  END
>  <ID>
528
$$$$
Structure_529
Score 	 8.0, smilesprid 	smiles	 smilestrue 	smiles	 similartanimoto 	0	 similardice 	0

   15   16  0  0  0  0            999 V3000
M  V30 BEGIN CTAB
M  V30 COUNTS 15 16 0 0 0
M  V30 BEGIN ATOM
M  V30 1 C -2.5391 -0.1953 0.0000 0
M  V30 2 C -1.7578 -1.3672 0.0000 0
M  V30 3 C -1.7578 0.9766 0.0000 0
M  V30 4 C -0.3906 -0.7812 0.0000 0
M  V30 5 C -0.3906 0.5859 0.0000 0
M  V30 6 C 0.7812 1.1719 0.0000 0
M  V30 7 C 1.9531 -0.7812 0.0000 0
M  V30 8 N 0.7812 -1.5625 0.0000 0
M  V30 9 N 1.9531 0.3906 0.0000 0
M  V30 10 H -3.5156 -0.1953 0.0000 0
M  V30 11 H -2.1484 2.1484 0.0000 0
M  V30 12 H -1.9531 -2.3438 0.0000 0
M  V30 13 H 0.9766 2.3438 0.0000 0
M  V30 14 H 2.9297 -1.3672 0.0000 0
M  V30 15 H 2.7344 0.9766 0.0000 0
M  V30 END ATOM
M  V30 BEGIN BOND
M  V30 1 1 1 2
M  V30 2 3 1 3
M  V30 3 1 1 10
M  V30 4 2 2 4
M  V30 5 1 2 12
M  V30 6 2 3 5
M  V30 7 1 3 11
M  V30 8 1 4 5
M  V30 9 1 4 8
M  V30 10 3 5 6
M  V30 11 1 6 9
M  V30 12 1 6 13
M  V30 13 1 7 8
M  V30 14 1 7 9
M  V30 15 1 7 14
M  V30 16 1 9 15
M  V30 END BOND
M  V30 END CTAB
M  END
>  <ID>
529
$$$$
Structure_530
Score 	 10.0, smilesprid 	smiles	 smilestrue 	smiles	 similartanimoto 	0	 similardice 	0

   15   16  0  0  0  0            999 V3000
M  V30 BEGIN CTAB
M  V30 COUNTS 15 16 0 0 0
M  V30 BEGIN ATOM
M  V30 1 C -2.5391 -0.1953 0.0000 0
M  V30 2 C -1.7578 -1.3672 0.0000 0
M  V30 3 C -1.7578 0.9766 0.0000 0
M  V30 4 C -0.3906 -0.7812 0.0000 0
M  V30 5 C -0.3906 0.5859 0.0000 0
M  V30 6 C 0.7812 1.1719 0.0000 0
M  V30 7 C 1.9531 -0.7812 0.0000 0
M  V30 8 N 0.7812 -1.5625 0.0000 0
M  V30 9 N 1.9531 0.3906 0.0000 0
M  V30 10 H -3.5156 -0.1953 0.0000 0
M  V30 11 H -2.1484 2.1484 0.0000 0
M  V30 12 H -1.9531 -2.3438 0.0000 0
M  V30 13 H 0.9766 2.3438 0.0000 0
M  V30 14 H 2.9297 -1.3672 0.0000 0
M  V30 15 H 2.7344 0.9766 0.0000 0
M  V30 END ATOM
M  V30 BEGIN BOND
M  V30 1 2 1 2
M  V30 2 3 1 3
M  V30 3 1 1 10
M  V30 4 2 2 4
M  V30 5 1 2 12
M  V30 6 2 3 5
M  V30 7 1 3 11
M  V30 8 1 4 5
M  V30 9 1 4 8
M  V30 10 3 5 6
M  V30 11 1 6 9
M  V30 12 1 6 13
M  V30 13 1 7 8
M  V30 14 1 7 9
M  V30 15 1 7 14
M  V30 16 1 9 15
M  V30 END BOND
M  V30 END CTAB
M  END
>  <ID>
530
$$$$
Structure_531
Score 	 12.0, smilesprid 	smiles	 smilestrue 	smiles	 similartanimoto 	0	 similardice 	0

   15   16  0  0  0  0            999 V3000
M  V30 BEGIN CTAB
M  V30 COUNTS 15 16 0 0 0
M  V30 BEGIN ATOM
M  V30 1 C -2.5391 -0.1953 0.0000 0
M  V30 2 C -1.7578 -1.3672 0.0000 0
M  V30 3 C -1.7578 0.9766 0.0000 0
M  V30 4 C -0.3906 -0.7812 0.0000 0
M  V30 5 C -0.3906 0.5859 0.0000 0
M  V30 6 C 0.7812 1.1719 0.0000 0
M  V30 7 C 1.9531 -0.7812 0.0000 0
M  V30 8 N 0.7812 -1.5625 0.0000 0
M  V30 9 N 1.9531 0.3906 0.0000 0
M  V30 10 H -3.5156 -0.1953 0.0000 0
M  V30 11 H -2.1484 2.1484 0.0000 0
M  V30 12 H -1.9531 -2.3438 0.0000 0
M  V30 13 H 0.9766 2.3438 0.0000 0
M  V30 14 H 2.9297 -1.3672 0.0000 0
M  V30 15 H 2.7344 0.9766 0.0000 0
M  V30 END ATOM
M  V30 BEGIN BOND
M  V30 1 3 1 2
M  V30 2 3 1 3
M  V30 3 1 1 10
M  V30 4 2 2 4
M  V30 5 1 2 12
M  V30 6 2 3 5
M  V30 7 1 3 11
M  V30 8 1 4 5
M  V30 9 1 4 8
M  V30 10 3 5 6
M  V30 11 1 6 9
M  V30 12 1 6 13
M  V30 13 1 7 8
M  V30 14 1 7 9
M  V30 15 1 7 14
M  V30 16 1 9 15
M  V30 END BOND
M  V30 END CTAB
M  END
>  <ID>
531
$$$$
Structure_532
Score 	 8.0, smilesprid 	smiles	 smilestrue 	smiles	 similartanimoto 	0	 similardice 	0

   15   16  0  0  0  0            999 V3000
M  V30 BEGIN CTAB
M  V30 COUNTS 15 16 0 0 0
M  V30 BEGIN ATOM
M  V30 1 C -2.5391 -0.1953 0.0000 0
M  V30 2 C -1.7578 -1.3672 0.0000 0
M  V30 3 C -1.7578 0.9766 0.0000 0
M  V30 4 C -0.3906 -0.7812 0.0000 0
M  V30 5 C -0.3906 0.5859 0.0000 0
M  V30 6 C 0.7812 1.1719 0.0000 0
M  V30 7 C 1.9531 -0.7812 0.0000 0
M  V30 8 N 0.7812 -1.5625 0.0000 0
M  V30 9 N 1.9531 0.3906 0.0000 0
M  V30 10 H -3.5156 -0.1953 0.0000 0
M  V30 11 H -2.1484 2.1484 0.0000 0
M  V30 12 H -1.9531 -2.3438 0.0000 0
M  V30 13 H 0.9766 2.3438 0.0000 0
M  V30 14 H 2.9297 -1.3672 0.0000 0
M  V30 15 H 2.7344 0.9766 0.0000 0
M  V30 END ATOM
M  V30 BEGIN BOND
M  V30 1 1 1 2
M  V30 2 1 1 3
M  V30 3 1 1 10
M  V30 4 2 2 4
M  V30 5 1 2 12
M  V30 6 3 3 5
M  V30 7 1 3 11
M  V30 8 1 4 5
M  V30 9 1 4 8
M  V30 10 3 5 6
M  V30 11 1 6 9
M  V30 12 1 6 13
M  V30 13 1 7 8
M  V30 14 1 7 9
M  V30 15 1 7 14
M  V30 16 1 9 15
M  V30 END BOND
M  V30 END CTAB
M  END
>  <ID>
532
$$$$
Structure_533
Score 	 8.0, smilesprid 	smiles	 smilestrue 	smiles	 similartanimoto 	0	 similardice 	0

   15   16  0  0  0  0            999 V3000
M  V30 BEGIN CTAB
M  V30 COUNTS 15 16 0 0 0
M  V30 BEGIN ATOM
M  V30 1 C -2.5391 -0.1953 0.0000 0
M  V30 2 C -1.7578 -1.3672 0.0000 0
M  V30 3 C -1.7578 0.9766 0.0000 0
M  V30 4 C -0.3906 -0.7812 0.0000 0
M  V30 5 C -0.3906 0.5859 0.0000 0
M  V30 6 C 0.7812 1.1719 0.0000 0
M  V30 7 C 1.9531 -0.7812 0.0000 0
M  V30 8 N 0.7812 -1.5625 0.0000 0
M  V30 9 N 1.9531 0.3906 0.0000 0
M  V30 10 H -3.5156 -0.1953 0.0000 0
M  V30 11 H -2.1484 2.1484 0.0000 0
M  V30 12 H -1.9531 -2.3438 0.0000 0
M  V30 13 H 0.9766 2.3438 0.0000 0
M  V30 14 H 2.9297 -1.3672 0.0000 0
M  V30 15 H 2.7344 0.9766 0.0000 0
M  V30 END ATOM
M  V30 BEGIN BOND
M  V30 1 2 1 2
M  V30 2 1 1 3
M  V30 3 1 1 10
M  V30 4 2 2 4
M  V30 5 1 2 12
M  V30 6 3 3 5
M  V30 7 1 3 11
M  V30 8 1 4 5
M  V30 9 1 4 8
M  V30 10 3 5 6
M  V30 11 1 6 9
M  V30 12 1 6 13
M  V30 13 1 7 8
M  V30 14 1 7 9
M  V30 15 1 7 14
M  V30 16 1 9 15
M  V30 END BOND
M  V30 END CTAB
M  END
>  <ID>
533
$$$$
Structure_534
Score 	 10.0, smilesprid 	smiles	 smilestrue 	smiles	 similartanimoto 	0	 similardice 	0

   15   16  0  0  0  0            999 V3000
M  V30 BEGIN CTAB
M  V30 COUNTS 15 16 0 0 0
M  V30 BEGIN ATOM
M  V30 1 C -2.5391 -0.1953 0.0000 0
M  V30 2 C -1.7578 -1.3672 0.0000 0
M  V30 3 C -1.7578 0.9766 0.0000 0
M  V30 4 C -0.3906 -0.7812 0.0000 0
M  V30 5 C -0.3906 0.5859 0.0000 0
M  V30 6 C 0.7812 1.1719 0.0000 0
M  V30 7 C 1.9531 -0.7812 0.0000 0
M  V30 8 N 0.7812 -1.5625 0.0000 0
M  V30 9 N 1.9531 0.3906 0.0000 0
M  V30 10 H -3.5156 -0.1953 0.0000 0
M  V30 11 H -2.1484 2.1484 0.0000 0
M  V30 12 H -1.9531 -2.3438 0.0000 0
M  V30 13 H 0.9766 2.3438 0.0000 0
M  V30 14 H 2.9297 -1.3672 0.0000 0
M  V30 15 H 2.7344 0.9766 0.0000 0
M  V30 END ATOM
M  V30 BEGIN BOND
M  V30 1 3 1 2
M  V30 2 1 1 3
M  V30 3 1 1 10
M  V30 4 2 2 4
M  V30 5 1 2 12
M  V30 6 3 3 5
M  V30 7 1 3 11
M  V30 8 1 4 5
M  V30 9 1 4 8
M  V30 10 3 5 6
M  V30 11 1 6 9
M  V30 12 1 6 13
M  V30 13 1 7 8
M  V30 14 1 7 9
M  V30 15 1 7 14
M  V30 16 1 9 15
M  V30 END BOND
M  V30 END CTAB
M  END
>  <ID>
534
$$$$
Structure_535
Score 	 8.0, smilesprid 	smiles	 smilestrue 	smiles	 similartanimoto 	0	 similardice 	0

   15   16  0  0  0  0            999 V3000
M  V30 BEGIN CTAB
M  V30 COUNTS 15 16 0 0 0
M  V30 BEGIN ATOM
M  V30 1 C -2.5391 -0.1953 0.0000 0
M  V30 2 C -1.7578 -1.3672 0.0000 0
M  V30 3 C -1.7578 0.9766 0.0000 0
M  V30 4 C -0.3906 -0.7812 0.0000 0
M  V30 5 C -0.3906 0.5859 0.0000 0
M  V30 6 C 0.7812 1.1719 0.0000 0
M  V30 7 C 1.9531 -0.7812 0.0000 0
M  V30 8 N 0.7812 -1.5625 0.0000 0
M  V30 9 N 1.9531 0.3906 0.0000 0
M  V30 10 H -3.5156 -0.1953 0.0000 0
M  V30 11 H -2.1484 2.1484 0.0000 0
M  V30 12 H -1.9531 -2.3438 0.0000 0
M  V30 13 H 0.9766 2.3438 0.0000 0
M  V30 14 H 2.9297 -1.3672 0.0000 0
M  V30 15 H 2.7344 0.9766 0.0000 0
M  V30 END ATOM
M  V30 BEGIN BOND
M  V30 1 1 1 2
M  V30 2 2 1 3
M  V30 3 1 1 10
M  V30 4 2 2 4
M  V30 5 1 2 12
M  V30 6 3 3 5
M  V30 7 1 3 11
M  V30 8 1 4 5
M  V30 9 1 4 8
M  V30 10 3 5 6
M  V30 11 1 6 9
M  V30 12 1 6 13
M  V30 13 1 7 8
M  V30 14 1 7 9
M  V30 15 1 7 14
M  V30 16 1 9 15
M  V30 END BOND
M  V30 END CTAB
M  END
>  <ID>
535
$$$$
Structure_536
Score 	 10.0, smilesprid 	smiles	 smilestrue 	smiles	 similartanimoto 	0	 similardice 	0

   15   16  0  0  0  0            999 V3000
M  V30 BEGIN CTAB
M  V30 COUNTS 15 16 0 0 0
M  V30 BEGIN ATOM
M  V30 1 C -2.5391 -0.1953 0.0000 0
M  V30 2 C -1.7578 -1.3672 0.0000 0
M  V30 3 C -1.7578 0.9766 0.0000 0
M  V30 4 C -0.3906 -0.7812 0.0000 0
M  V30 5 C -0.3906 0.5859 0.0000 0
M  V30 6 C 0.7812 1.1719 0.0000 0
M  V30 7 C 1.9531 -0.7812 0.0000 0
M  V30 8 N 0.7812 -1.5625 0.0000 0
M  V30 9 N 1.9531 0.3906 0.0000 0
M  V30 10 H -3.5156 -0.1953 0.0000 0
M  V30 11 H -2.1484 2.1484 0.0000 0
M  V30 12 H -1.9531 -2.3438 0.0000 0
M  V30 13 H 0.9766 2.3438 0.0000 0
M  V30 14 H 2.9297 -1.3672 0.0000 0
M  V30 15 H 2.7344 0.9766 0.0000 0
M  V30 END ATOM
M  V30 BEGIN BOND
M  V30 1 2 1 2
M  V30 2 2 1 3
M  V30 3 1 1 10
M  V30 4 2 2 4
M  V30 5 1 2 12
M  V30 6 3 3 5
M  V30 7 1 3 11
M  V30 8 1 4 5
M  V30 9 1 4 8
M  V30 10 3 5 6
M  V30 11 1 6 9
M  V30 12 1 6 13
M  V30 13 1 7 8
M  V30 14 1 7 9
M  V30 15 1 7 14
M  V30 16 1 9 15
M  V30 END BOND
M  V30 END CTAB
M  END
>  <ID>
536
$$$$
Structure_537
Score 	 12.0, smilesprid 	smiles	 smilestrue 	smiles	 similartanimoto 	0	 similardice 	0

   15   16  0  0  0  0            999 V3000
M  V30 BEGIN CTAB
M  V30 COUNTS 15 16 0 0 0
M  V30 BEGIN ATOM
M  V30 1 C -2.5391 -0.1953 0.0000 0
M  V30 2 C -1.7578 -1.3672 0.0000 0
M  V30 3 C -1.7578 0.9766 0.0000 0
M  V30 4 C -0.3906 -0.7812 0.0000 0
M  V30 5 C -0.3906 0.5859 0.0000 0
M  V30 6 C 0.7812 1.1719 0.0000 0
M  V30 7 C 1.9531 -0.7812 0.0000 0
M  V30 8 N 0.7812 -1.5625 0.0000 0
M  V30 9 N 1.9531 0.3906 0.0000 0
M  V30 10 H -3.5156 -0.1953 0.0000 0
M  V30 11 H -2.1484 2.1484 0.0000 0
M  V30 12 H -1.9531 -2.3438 0.0000 0
M  V30 13 H 0.9766 2.3438 0.0000 0
M  V30 14 H 2.9297 -1.3672 0.0000 0
M  V30 15 H 2.7344 0.9766 0.0000 0
M  V30 END ATOM
M  V30 BEGIN BOND
M  V30 1 3 1 2
M  V30 2 2 1 3
M  V30 3 1 1 10
M  V30 4 2 2 4
M  V30 5 1 2 12
M  V30 6 3 3 5
M  V30 7 1 3 11
M  V30 8 1 4 5
M  V30 9 1 4 8
M  V30 10 3 5 6
M  V30 11 1 6 9
M  V30 12 1 6 13
M  V30 13 1 7 8
M  V30 14 1 7 9
M  V30 15 1 7 14
M  V30 16 1 9 15
M  V30 END BOND
M  V30 END CTAB
M  END
>  <ID>
537
$$$$
Structure_538
Score 	 10.0, smilesprid 	smiles	 smilestrue 	smiles	 similartanimoto 	0	 similardice 	0

   15   16  0  0  0  0            999 V3000
M  V30 BEGIN CTAB
M  V30 COUNTS 15 16 0 0 0
M  V30 BEGIN ATOM
M  V30 1 C -2.5391 -0.1953 0.0000 0
M  V30 2 C -1.7578 -1.3672 0.0000 0
M  V30 3 C -1.7578 0.9766 0.0000 0
M  V30 4 C -0.3906 -0.7812 0.0000 0
M  V30 5 C -0.3906 0.5859 0.0000 0
M  V30 6 C 0.7812 1.1719 0.0000 0
M  V30 7 C 1.9531 -0.7812 0.0000 0
M  V30 8 N 0.7812 -1.5625 0.0000 0
M  V30 9 N 1.9531 0.3906 0.0000 0
M  V30 10 H -3.5156 -0.1953 0.0000 0
M  V30 11 H -2.1484 2.1484 0.0000 0
M  V30 12 H -1.9531 -2.3438 0.0000 0
M  V30 13 H 0.9766 2.3438 0.0000 0
M  V30 14 H 2.9297 -1.3672 0.0000 0
M  V30 15 H 2.7344 0.9766 0.0000 0
M  V30 END ATOM
M  V30 BEGIN BOND
M  V30 1 1 1 2
M  V30 2 3 1 3
M  V30 3 1 1 10
M  V30 4 2 2 4
M  V30 5 1 2 12
M  V30 6 3 3 5
M  V30 7 1 3 11
M  V30 8 1 4 5
M  V30 9 1 4 8
M  V30 10 3 5 6
M  V30 11 1 6 9
M  V30 12 1 6 13
M  V30 13 1 7 8
M  V30 14 1 7 9
M  V30 15 1 7 14
M  V30 16 1 9 15
M  V30 END BOND
M  V30 END CTAB
M  END
>  <ID>
538
$$$$
Structure_539
Score 	 12.0, smilesprid 	smiles	 smilestrue 	smiles	 similartanimoto 	0	 similardice 	0

   15   16  0  0  0  0            999 V3000
M  V30 BEGIN CTAB
M  V30 COUNTS 15 16 0 0 0
M  V30 BEGIN ATOM
M  V30 1 C -2.5391 -0.1953 0.0000 0
M  V30 2 C -1.7578 -1.3672 0.0000 0
M  V30 3 C -1.7578 0.9766 0.0000 0
M  V30 4 C -0.3906 -0.7812 0.0000 0
M  V30 5 C -0.3906 0.5859 0.0000 0
M  V30 6 C 0.7812 1.1719 0.0000 0
M  V30 7 C 1.9531 -0.7812 0.0000 0
M  V30 8 N 0.7812 -1.5625 0.0000 0
M  V30 9 N 1.9531 0.3906 0.0000 0
M  V30 10 H -3.5156 -0.1953 0.0000 0
M  V30 11 H -2.1484 2.1484 0.0000 0
M  V30 12 H -1.9531 -2.3438 0.0000 0
M  V30 13 H 0.9766 2.3438 0.0000 0
M  V30 14 H 2.9297 -1.3672 0.0000 0
M  V30 15 H 2.7344 0.9766 0.0000 0
M  V30 END ATOM
M  V30 BEGIN BOND
M  V30 1 2 1 2
M  V30 2 3 1 3
M  V30 3 1 1 10
M  V30 4 2 2 4
M  V30 5 1 2 12
M  V30 6 3 3 5
M  V30 7 1 3 11
M  V30 8 1 4 5
M  V30 9 1 4 8
M  V30 10 3 5 6
M  V30 11 1 6 9
M  V30 12 1 6 13
M  V30 13 1 7 8
M  V30 14 1 7 9
M  V30 15 1 7 14
M  V30 16 1 9 15
M  V30 END BOND
M  V30 END CTAB
M  END
>  <ID>
539
$$$$
Structure_540
Score 	 14.0, smilesprid 	smiles	 smilestrue 	smiles	 similartanimoto 	0	 similardice 	0

   15   16  0  0  0  0            999 V3000
M  V30 BEGIN CTAB
M  V30 COUNTS 15 16 0 0 0
M  V30 BEGIN ATOM
M  V30 1 C -2.5391 -0.1953 0.0000 0
M  V30 2 C -1.7578 -1.3672 0.0000 0
M  V30 3 C -1.7578 0.9766 0.0000 0
M  V30 4 C -0.3906 -0.7812 0.0000 0
M  V30 5 C -0.3906 0.5859 0.0000 0
M  V30 6 C 0.7812 1.1719 0.0000 0
M  V30 7 C 1.9531 -0.7812 0.0000 0
M  V30 8 N 0.7812 -1.5625 0.0000 0
M  V30 9 N 1.9531 0.3906 0.0000 0
M  V30 10 H -3.5156 -0.1953 0.0000 0
M  V30 11 H -2.1484 2.1484 0.0000 0
M  V30 12 H -1.9531 -2.3438 0.0000 0
M  V30 13 H 0.9766 2.3438 0.0000 0
M  V30 14 H 2.9297 -1.3672 0.0000 0
M  V30 15 H 2.7344 0.9766 0.0000 0
M  V30 END ATOM
M  V30 BEGIN BOND
M  V30 1 3 1 2
M  V30 2 3 1 3
M  V30 3 1 1 10
M  V30 4 2 2 4
M  V30 5 1 2 12
M  V30 6 3 3 5
M  V30 7 1 3 11
M  V30 8 1 4 5
M  V30 9 1 4 8
M  V30 10 3 5 6
M  V30 11 1 6 9
M  V30 12 1 6 13
M  V30 13 1 7 8
M  V30 14 1 7 9
M  V30 15 1 7 14
M  V30 16 1 9 15
M  V30 END BOND
M  V30 END CTAB
M  END
>  <ID>
540
$$$$
Structure_541
Score 	 8.0, smilesprid 	smiles	 smilestrue 	smiles	 similartanimoto 	0	 similardice 	0

   15   16  0  0  0  0            999 V3000
M  V30 BEGIN CTAB
M  V30 COUNTS 15 16 0 0 0
M  V30 BEGIN ATOM
M  V30 1 C -2.5391 -0.1953 0.0000 0
M  V30 2 C -1.7578 -1.3672 0.0000 0
M  V30 3 C -1.7578 0.9766 0.0000 0
M  V30 4 C -0.3906 -0.7812 0.0000 0
M  V30 5 C -0.3906 0.5859 0.0000 0
M  V30 6 C 0.7812 1.1719 0.0000 0
M  V30 7 C 1.9531 -0.7812 0.0000 0
M  V30 8 N 0.7812 -1.5625 0.0000 0
M  V30 9 N 1.9531 0.3906 0.0000 0
M  V30 10 H -3.5156 -0.1953 0.0000 0
M  V30 11 H -2.1484 2.1484 0.0000 0
M  V30 12 H -1.9531 -2.3438 0.0000 0
M  V30 13 H 0.9766 2.3438 0.0000 0
M  V30 14 H 2.9297 -1.3672 0.0000 0
M  V30 15 H 2.7344 0.9766 0.0000 0
M  V30 END ATOM
M  V30 BEGIN BOND
M  V30 1 1 1 2
M  V30 2 1 1 3
M  V30 3 1 1 10
M  V30 4 3 2 4
M  V30 5 1 2 12
M  V30 6 1 3 5
M  V30 7 1 3 11
M  V30 8 1 4 5
M  V30 9 1 4 8
M  V30 10 3 5 6
M  V30 11 1 6 9
M  V30 12 1 6 13
M  V30 13 1 7 8
M  V30 14 1 7 9
M  V30 15 1 7 14
M  V30 16 1 9 15
M  V30 END BOND
M  V30 END CTAB
M  END
>  <ID>
541
$$$$
Structure_542
Score 	 8.0, smilesprid 	smiles	 smilestrue 	smiles	 similartanimoto 	0	 similardice 	0

   15   16  0  0  0  0            999 V3000
M  V30 BEGIN CTAB
M  V30 COUNTS 15 16 0 0 0
M  V30 BEGIN ATOM
M  V30 1 C -2.5391 -0.1953 0.0000 0
M  V30 2 C -1.7578 -1.3672 0.0000 0
M  V30 3 C -1.7578 0.9766 0.0000 0
M  V30 4 C -0.3906 -0.7812 0.0000 0
M  V30 5 C -0.3906 0.5859 0.0000 0
M  V30 6 C 0.7812 1.1719 0.0000 0
M  V30 7 C 1.9531 -0.7812 0.0000 0
M  V30 8 N 0.7812 -1.5625 0.0000 0
M  V30 9 N 1.9531 0.3906 0.0000 0
M  V30 10 H -3.5156 -0.1953 0.0000 0
M  V30 11 H -2.1484 2.1484 0.0000 0
M  V30 12 H -1.9531 -2.3438 0.0000 0
M  V30 13 H 0.9766 2.3438 0.0000 0
M  V30 14 H 2.9297 -1.3672 0.0000 0
M  V30 15 H 2.7344 0.9766 0.0000 0
M  V30 END ATOM
M  V30 BEGIN BOND
M  V30 1 2 1 2
M  V30 2 1 1 3
M  V30 3 1 1 10
M  V30 4 3 2 4
M  V30 5 1 2 12
M  V30 6 1 3 5
M  V30 7 1 3 11
M  V30 8 1 4 5
M  V30 9 1 4 8
M  V30 10 3 5 6
M  V30 11 1 6 9
M  V30 12 1 6 13
M  V30 13 1 7 8
M  V30 14 1 7 9
M  V30 15 1 7 14
M  V30 16 1 9 15
M  V30 END BOND
M  V30 END CTAB
M  END
>  <ID>
542
$$$$
Structure_543
Score 	 10.0, smilesprid 	smiles	 smilestrue 	smiles	 similartanimoto 	0	 similardice 	0

   15   16  0  0  0  0            999 V3000
M  V30 BEGIN CTAB
M  V30 COUNTS 15 16 0 0 0
M  V30 BEGIN ATOM
M  V30 1 C -2.5391 -0.1953 0.0000 0
M  V30 2 C -1.7578 -1.3672 0.0000 0
M  V30 3 C -1.7578 0.9766 0.0000 0
M  V30 4 C -0.3906 -0.7812 0.0000 0
M  V30 5 C -0.3906 0.5859 0.0000 0
M  V30 6 C 0.7812 1.1719 0.0000 0
M  V30 7 C 1.9531 -0.7812 0.0000 0
M  V30 8 N 0.7812 -1.5625 0.0000 0
M  V30 9 N 1.9531 0.3906 0.0000 0
M  V30 10 H -3.5156 -0.1953 0.0000 0
M  V30 11 H -2.1484 2.1484 0.0000 0
M  V30 12 H -1.9531 -2.3438 0.0000 0
M  V30 13 H 0.9766 2.3438 0.0000 0
M  V30 14 H 2.9297 -1.3672 0.0000 0
M  V30 15 H 2.7344 0.9766 0.0000 0
M  V30 END ATOM
M  V30 BEGIN BOND
M  V30 1 3 1 2
M  V30 2 1 1 3
M  V30 3 1 1 10
M  V30 4 3 2 4
M  V30 5 1 2 12
M  V30 6 1 3 5
M  V30 7 1 3 11
M  V30 8 1 4 5
M  V30 9 1 4 8
M  V30 10 3 5 6
M  V30 11 1 6 9
M  V30 12 1 6 13
M  V30 13 1 7 8
M  V30 14 1 7 9
M  V30 15 1 7 14
M  V30 16 1 9 15
M  V30 END BOND
M  V30 END CTAB
M  END
>  <ID>
543
$$$$
Structure_544
Score 	 6.0, smilesprid 	smiles	 smilestrue 	smiles	 similartanimoto 	0	 similardice 	0

   15   16  0  0  0  0            999 V3000
M  V30 BEGIN CTAB
M  V30 COUNTS 15 16 0 0 0
M  V30 BEGIN ATOM
M  V30 1 C -2.5391 -0.1953 0.0000 0
M  V30 2 C -1.7578 -1.3672 0.0000 0
M  V30 3 C -1.7578 0.9766 0.0000 0
M  V30 4 C -0.3906 -0.7812 0.0000 0
M  V30 5 C -0.3906 0.5859 0.0000 0
M  V30 6 C 0.7812 1.1719 0.0000 0
M  V30 7 C 1.9531 -0.7812 0.0000 0
M  V30 8 N 0.7812 -1.5625 0.0000 0
M  V30 9 N 1.9531 0.3906 0.0000 0
M  V30 10 H -3.5156 -0.1953 0.0000 0
M  V30 11 H -2.1484 2.1484 0.0000 0
M  V30 12 H -1.9531 -2.3438 0.0000 0
M  V30 13 H 0.9766 2.3438 0.0000 0
M  V30 14 H 2.9297 -1.3672 0.0000 0
M  V30 15 H 2.7344 0.9766 0.0000 0
M  V30 END ATOM
M  V30 BEGIN BOND
M  V30 1 1 1 2
M  V30 2 2 1 3
M  V30 3 1 1 10
M  V30 4 3 2 4
M  V30 5 1 2 12
M  V30 6 1 3 5
M  V30 7 1 3 11
M  V30 8 1 4 5
M  V30 9 1 4 8
M  V30 10 3 5 6
M  V30 11 1 6 9
M  V30 12 1 6 13
M  V30 13 1 7 8
M  V30 14 1 7 9
M  V30 15 1 7 14
M  V30 16 1 9 15
M  V30 END BOND
M  V30 END CTAB
M  END
>  <ID>
544
$$$$
Structure_545
Score 	 8.0, smilesprid 	smiles	 smilestrue 	smiles	 similartanimoto 	0	 similardice 	0

   15   16  0  0  0  0            999 V3000
M  V30 BEGIN CTAB
M  V30 COUNTS 15 16 0 0 0
M  V30 BEGIN ATOM
M  V30 1 C -2.5391 -0.1953 0.0000 0
M  V30 2 C -1.7578 -1.3672 0.0000 0
M  V30 3 C -1.7578 0.9766 0.0000 0
M  V30 4 C -0.3906 -0.7812 0.0000 0
M  V30 5 C -0.3906 0.5859 0.0000 0
M  V30 6 C 0.7812 1.1719 0.0000 0
M  V30 7 C 1.9531 -0.7812 0.0000 0
M  V30 8 N 0.7812 -1.5625 0.0000 0
M  V30 9 N 1.9531 0.3906 0.0000 0
M  V30 10 H -3.5156 -0.1953 0.0000 0
M  V30 11 H -2.1484 2.1484 0.0000 0
M  V30 12 H -1.9531 -2.3438 0.0000 0
M  V30 13 H 0.9766 2.3438 0.0000 0
M  V30 14 H 2.9297 -1.3672 0.0000 0
M  V30 15 H 2.7344 0.9766 0.0000 0
M  V30 END ATOM
M  V30 BEGIN BOND
M  V30 1 2 1 2
M  V30 2 2 1 3
M  V30 3 1 1 10
M  V30 4 3 2 4
M  V30 5 1 2 12
M  V30 6 1 3 5
M  V30 7 1 3 11
M  V30 8 1 4 5
M  V30 9 1 4 8
M  V30 10 3 5 6
M  V30 11 1 6 9
M  V30 12 1 6 13
M  V30 13 1 7 8
M  V30 14 1 7 9
M  V30 15 1 7 14
M  V30 16 1 9 15
M  V30 END BOND
M  V30 END CTAB
M  END
>  <ID>
545
$$$$
Structure_546
Score 	 10.0, smilesprid 	smiles	 smilestrue 	smiles	 similartanimoto 	0	 similardice 	0

   15   16  0  0  0  0            999 V3000
M  V30 BEGIN CTAB
M  V30 COUNTS 15 16 0 0 0
M  V30 BEGIN ATOM
M  V30 1 C -2.5391 -0.1953 0.0000 0
M  V30 2 C -1.7578 -1.3672 0.0000 0
M  V30 3 C -1.7578 0.9766 0.0000 0
M  V30 4 C -0.3906 -0.7812 0.0000 0
M  V30 5 C -0.3906 0.5859 0.0000 0
M  V30 6 C 0.7812 1.1719 0.0000 0
M  V30 7 C 1.9531 -0.7812 0.0000 0
M  V30 8 N 0.7812 -1.5625 0.0000 0
M  V30 9 N 1.9531 0.3906 0.0000 0
M  V30 10 H -3.5156 -0.1953 0.0000 0
M  V30 11 H -2.1484 2.1484 0.0000 0
M  V30 12 H -1.9531 -2.3438 0.0000 0
M  V30 13 H 0.9766 2.3438 0.0000 0
M  V30 14 H 2.9297 -1.3672 0.0000 0
M  V30 15 H 2.7344 0.9766 0.0000 0
M  V30 END ATOM
M  V30 BEGIN BOND
M  V30 1 3 1 2
M  V30 2 2 1 3
M  V30 3 1 1 10
M  V30 4 3 2 4
M  V30 5 1 2 12
M  V30 6 1 3 5
M  V30 7 1 3 11
M  V30 8 1 4 5
M  V30 9 1 4 8
M  V30 10 3 5 6
M  V30 11 1 6 9
M  V30 12 1 6 13
M  V30 13 1 7 8
M  V30 14 1 7 9
M  V30 15 1 7 14
M  V30 16 1 9 15
M  V30 END BOND
M  V30 END CTAB
M  END
>  <ID>
546
$$$$
Structure_547
Score 	 8.0, smilesprid 	smiles	 smilestrue 	smiles	 similartanimoto 	0	 similardice 	0

   15   16  0  0  0  0            999 V3000
M  V30 BEGIN CTAB
M  V30 COUNTS 15 16 0 0 0
M  V30 BEGIN ATOM
M  V30 1 C -2.5391 -0.1953 0.0000 0
M  V30 2 C -1.7578 -1.3672 0.0000 0
M  V30 3 C -1.7578 0.9766 0.0000 0
M  V30 4 C -0.3906 -0.7812 0.0000 0
M  V30 5 C -0.3906 0.5859 0.0000 0
M  V30 6 C 0.7812 1.1719 0.0000 0
M  V30 7 C 1.9531 -0.7812 0.0000 0
M  V30 8 N 0.7812 -1.5625 0.0000 0
M  V30 9 N 1.9531 0.3906 0.0000 0
M  V30 10 H -3.5156 -0.1953 0.0000 0
M  V30 11 H -2.1484 2.1484 0.0000 0
M  V30 12 H -1.9531 -2.3438 0.0000 0
M  V30 13 H 0.9766 2.3438 0.0000 0
M  V30 14 H 2.9297 -1.3672 0.0000 0
M  V30 15 H 2.7344 0.9766 0.0000 0
M  V30 END ATOM
M  V30 BEGIN BOND
M  V30 1 1 1 2
M  V30 2 3 1 3
M  V30 3 1 1 10
M  V30 4 3 2 4
M  V30 5 1 2 12
M  V30 6 1 3 5
M  V30 7 1 3 11
M  V30 8 1 4 5
M  V30 9 1 4 8
M  V30 10 3 5 6
M  V30 11 1 6 9
M  V30 12 1 6 13
M  V30 13 1 7 8
M  V30 14 1 7 9
M  V30 15 1 7 14
M  V30 16 1 9 15
M  V30 END BOND
M  V30 END CTAB
M  END
>  <ID>
547
$$$$
Structure_548
Score 	 10.0, smilesprid 	smiles	 smilestrue 	smiles	 similartanimoto 	0	 similardice 	0

   15   16  0  0  0  0            999 V3000
M  V30 BEGIN CTAB
M  V30 COUNTS 15 16 0 0 0
M  V30 BEGIN ATOM
M  V30 1 C -2.5391 -0.1953 0.0000 0
M  V30 2 C -1.7578 -1.3672 0.0000 0
M  V30 3 C -1.7578 0.9766 0.0000 0
M  V30 4 C -0.3906 -0.7812 0.0000 0
M  V30 5 C -0.3906 0.5859 0.0000 0
M  V30 6 C 0.7812 1.1719 0.0000 0
M  V30 7 C 1.9531 -0.7812 0.0000 0
M  V30 8 N 0.7812 -1.5625 0.0000 0
M  V30 9 N 1.9531 0.3906 0.0000 0
M  V30 10 H -3.5156 -0.1953 0.0000 0
M  V30 11 H -2.1484 2.1484 0.0000 0
M  V30 12 H -1.9531 -2.3438 0.0000 0
M  V30 13 H 0.9766 2.3438 0.0000 0
M  V30 14 H 2.9297 -1.3672 0.0000 0
M  V30 15 H 2.7344 0.9766 0.0000 0
M  V30 END ATOM
M  V30 BEGIN BOND
M  V30 1 2 1 2
M  V30 2 3 1 3
M  V30 3 1 1 10
M  V30 4 3 2 4
M  V30 5 1 2 12
M  V30 6 1 3 5
M  V30 7 1 3 11
M  V30 8 1 4 5
M  V30 9 1 4 8
M  V30 10 3 5 6
M  V30 11 1 6 9
M  V30 12 1 6 13
M  V30 13 1 7 8
M  V30 14 1 7 9
M  V30 15 1 7 14
M  V30 16 1 9 15
M  V30 END BOND
M  V30 END CTAB
M  END
>  <ID>
548
$$$$
Structure_549
Score 	 12.0, smilesprid 	smiles	 smilestrue 	smiles	 similartanimoto 	0	 similardice 	0

   15   16  0  0  0  0            999 V3000
M  V30 BEGIN CTAB
M  V30 COUNTS 15 16 0 0 0
M  V30 BEGIN ATOM
M  V30 1 C -2.5391 -0.1953 0.0000 0
M  V30 2 C -1.7578 -1.3672 0.0000 0
M  V30 3 C -1.7578 0.9766 0.0000 0
M  V30 4 C -0.3906 -0.7812 0.0000 0
M  V30 5 C -0.3906 0.5859 0.0000 0
M  V30 6 C 0.7812 1.1719 0.0000 0
M  V30 7 C 1.9531 -0.7812 0.0000 0
M  V30 8 N 0.7812 -1.5625 0.0000 0
M  V30 9 N 1.9531 0.3906 0.0000 0
M  V30 10 H -3.5156 -0.1953 0.0000 0
M  V30 11 H -2.1484 2.1484 0.0000 0
M  V30 12 H -1.9531 -2.3438 0.0000 0
M  V30 13 H 0.9766 2.3438 0.0000 0
M  V30 14 H 2.9297 -1.3672 0.0000 0
M  V30 15 H 2.7344 0.9766 0.0000 0
M  V30 END ATOM
M  V30 BEGIN BOND
M  V30 1 3 1 2
M  V30 2 3 1 3
M  V30 3 1 1 10
M  V30 4 3 2 4
M  V30 5 1 2 12
M  V30 6 1 3 5
M  V30 7 1 3 11
M  V30 8 1 4 5
M  V30 9 1 4 8
M  V30 10 3 5 6
M  V30 11 1 6 9
M  V30 12 1 6 13
M  V30 13 1 7 8
M  V30 14 1 7 9
M  V30 15 1 7 14
M  V30 16 1 9 15
M  V30 END BOND
M  V30 END CTAB
M  END
>  <ID>
549
$$$$
Structure_550
Score 	 8.0, smilesprid 	smiles	 smilestrue 	smiles	 similartanimoto 	0	 similardice 	0

   15   16  0  0  0  0            999 V3000
M  V30 BEGIN CTAB
M  V30 COUNTS 15 16 0 0 0
M  V30 BEGIN ATOM
M  V30 1 C -2.5391 -0.1953 0.0000 0
M  V30 2 C -1.7578 -1.3672 0.0000 0
M  V30 3 C -1.7578 0.9766 0.0000 0
M  V30 4 C -0.3906 -0.7812 0.0000 0
M  V30 5 C -0.3906 0.5859 0.0000 0
M  V30 6 C 0.7812 1.1719 0.0000 0
M  V30 7 C 1.9531 -0.7812 0.0000 0
M  V30 8 N 0.7812 -1.5625 0.0000 0
M  V30 9 N 1.9531 0.3906 0.0000 0
M  V30 10 H -3.5156 -0.1953 0.0000 0
M  V30 11 H -2.1484 2.1484 0.0000 0
M  V30 12 H -1.9531 -2.3438 0.0000 0
M  V30 13 H 0.9766 2.3438 0.0000 0
M  V30 14 H 2.9297 -1.3672 0.0000 0
M  V30 15 H 2.7344 0.9766 0.0000 0
M  V30 END ATOM
M  V30 BEGIN BOND
M  V30 1 1 1 2
M  V30 2 1 1 3
M  V30 3 1 1 10
M  V30 4 3 2 4
M  V30 5 1 2 12
M  V30 6 2 3 5
M  V30 7 1 3 11
M  V30 8 1 4 5
M  V30 9 1 4 8
M  V30 10 3 5 6
M  V30 11 1 6 9
M  V30 12 1 6 13
M  V30 13 1 7 8
M  V30 14 1 7 9
M  V30 15 1 7 14
M  V30 16 1 9 15
M  V30 END BOND
M  V30 END CTAB
M  END
>  <ID>
550
$$$$
Structure_551
Score 	 8.0, smilesprid 	smiles	 smilestrue 	smiles	 similartanimoto 	0	 similardice 	0

   15   16  0  0  0  0            999 V3000
M  V30 BEGIN CTAB
M  V30 COUNTS 15 16 0 0 0
M  V30 BEGIN ATOM
M  V30 1 C -2.5391 -0.1953 0.0000 0
M  V30 2 C -1.7578 -1.3672 0.0000 0
M  V30 3 C -1.7578 0.9766 0.0000 0
M  V30 4 C -0.3906 -0.7812 0.0000 0
M  V30 5 C -0.3906 0.5859 0.0000 0
M  V30 6 C 0.7812 1.1719 0.0000 0
M  V30 7 C 1.9531 -0.7812 0.0000 0
M  V30 8 N 0.7812 -1.5625 0.0000 0
M  V30 9 N 1.9531 0.3906 0.0000 0
M  V30 10 H -3.5156 -0.1953 0.0000 0
M  V30 11 H -2.1484 2.1484 0.0000 0
M  V30 12 H -1.9531 -2.3438 0.0000 0
M  V30 13 H 0.9766 2.3438 0.0000 0
M  V30 14 H 2.9297 -1.3672 0.0000 0
M  V30 15 H 2.7344 0.9766 0.0000 0
M  V30 END ATOM
M  V30 BEGIN BOND
M  V30 1 2 1 2
M  V30 2 1 1 3
M  V30 3 1 1 10
M  V30 4 3 2 4
M  V30 5 1 2 12
M  V30 6 2 3 5
M  V30 7 1 3 11
M  V30 8 1 4 5
M  V30 9 1 4 8
M  V30 10 3 5 6
M  V30 11 1 6 9
M  V30 12 1 6 13
M  V30 13 1 7 8
M  V30 14 1 7 9
M  V30 15 1 7 14
M  V30 16 1 9 15
M  V30 END BOND
M  V30 END CTAB
M  END
>  <ID>
551
$$$$
Structure_552
Score 	 10.0, smilesprid 	smiles	 smilestrue 	smiles	 similartanimoto 	0	 similardice 	0

   15   16  0  0  0  0            999 V3000
M  V30 BEGIN CTAB
M  V30 COUNTS 15 16 0 0 0
M  V30 BEGIN ATOM
M  V30 1 C -2.5391 -0.1953 0.0000 0
M  V30 2 C -1.7578 -1.3672 0.0000 0
M  V30 3 C -1.7578 0.9766 0.0000 0
M  V30 4 C -0.3906 -0.7812 0.0000 0
M  V30 5 C -0.3906 0.5859 0.0000 0
M  V30 6 C 0.7812 1.1719 0.0000 0
M  V30 7 C 1.9531 -0.7812 0.0000 0
M  V30 8 N 0.7812 -1.5625 0.0000 0
M  V30 9 N 1.9531 0.3906 0.0000 0
M  V30 10 H -3.5156 -0.1953 0.0000 0
M  V30 11 H -2.1484 2.1484 0.0000 0
M  V30 12 H -1.9531 -2.3438 0.0000 0
M  V30 13 H 0.9766 2.3438 0.0000 0
M  V30 14 H 2.9297 -1.3672 0.0000 0
M  V30 15 H 2.7344 0.9766 0.0000 0
M  V30 END ATOM
M  V30 BEGIN BOND
M  V30 1 3 1 2
M  V30 2 1 1 3
M  V30 3 1 1 10
M  V30 4 3 2 4
M  V30 5 1 2 12
M  V30 6 2 3 5
M  V30 7 1 3 11
M  V30 8 1 4 5
M  V30 9 1 4 8
M  V30 10 3 5 6
M  V30 11 1 6 9
M  V30 12 1 6 13
M  V30 13 1 7 8
M  V30 14 1 7 9
M  V30 15 1 7 14
M  V30 16 1 9 15
M  V30 END BOND
M  V30 END CTAB
M  END
>  <ID>
552
$$$$
Structure_553
Score 	 8.0, smilesprid 	smiles	 smilestrue 	smiles	 similartanimoto 	0	 similardice 	0

   15   16  0  0  0  0            999 V3000
M  V30 BEGIN CTAB
M  V30 COUNTS 15 16 0 0 0
M  V30 BEGIN ATOM
M  V30 1 C -2.5391 -0.1953 0.0000 0
M  V30 2 C -1.7578 -1.3672 0.0000 0
M  V30 3 C -1.7578 0.9766 0.0000 0
M  V30 4 C -0.3906 -0.7812 0.0000 0
M  V30 5 C -0.3906 0.5859 0.0000 0
M  V30 6 C 0.7812 1.1719 0.0000 0
M  V30 7 C 1.9531 -0.7812 0.0000 0
M  V30 8 N 0.7812 -1.5625 0.0000 0
M  V30 9 N 1.9531 0.3906 0.0000 0
M  V30 10 H -3.5156 -0.1953 0.0000 0
M  V30 11 H -2.1484 2.1484 0.0000 0
M  V30 12 H -1.9531 -2.3438 0.0000 0
M  V30 13 H 0.9766 2.3438 0.0000 0
M  V30 14 H 2.9297 -1.3672 0.0000 0
M  V30 15 H 2.7344 0.9766 0.0000 0
M  V30 END ATOM
M  V30 BEGIN BOND
M  V30 1 1 1 2
M  V30 2 2 1 3
M  V30 3 1 1 10
M  V30 4 3 2 4
M  V30 5 1 2 12
M  V30 6 2 3 5
M  V30 7 1 3 11
M  V30 8 1 4 5
M  V30 9 1 4 8
M  V30 10 3 5 6
M  V30 11 1 6 9
M  V30 12 1 6 13
M  V30 13 1 7 8
M  V30 14 1 7 9
M  V30 15 1 7 14
M  V30 16 1 9 15
M  V30 END BOND
M  V30 END CTAB
M  END
>  <ID>
553
$$$$
Structure_554
Score 	 10.0, smilesprid 	smiles	 smilestrue 	smiles	 similartanimoto 	0	 similardice 	0

   15   16  0  0  0  0            999 V3000
M  V30 BEGIN CTAB
M  V30 COUNTS 15 16 0 0 0
M  V30 BEGIN ATOM
M  V30 1 C -2.5391 -0.1953 0.0000 0
M  V30 2 C -1.7578 -1.3672 0.0000 0
M  V30 3 C -1.7578 0.9766 0.0000 0
M  V30 4 C -0.3906 -0.7812 0.0000 0
M  V30 5 C -0.3906 0.5859 0.0000 0
M  V30 6 C 0.7812 1.1719 0.0000 0
M  V30 7 C 1.9531 -0.7812 0.0000 0
M  V30 8 N 0.7812 -1.5625 0.0000 0
M  V30 9 N 1.9531 0.3906 0.0000 0
M  V30 10 H -3.5156 -0.1953 0.0000 0
M  V30 11 H -2.1484 2.1484 0.0000 0
M  V30 12 H -1.9531 -2.3438 0.0000 0
M  V30 13 H 0.9766 2.3438 0.0000 0
M  V30 14 H 2.9297 -1.3672 0.0000 0
M  V30 15 H 2.7344 0.9766 0.0000 0
M  V30 END ATOM
M  V30 BEGIN BOND
M  V30 1 2 1 2
M  V30 2 2 1 3
M  V30 3 1 1 10
M  V30 4 3 2 4
M  V30 5 1 2 12
M  V30 6 2 3 5
M  V30 7 1 3 11
M  V30 8 1 4 5
M  V30 9 1 4 8
M  V30 10 3 5 6
M  V30 11 1 6 9
M  V30 12 1 6 13
M  V30 13 1 7 8
M  V30 14 1 7 9
M  V30 15 1 7 14
M  V30 16 1 9 15
M  V30 END BOND
M  V30 END CTAB
M  END
>  <ID>
554
$$$$
Structure_555
Score 	 12.0, smilesprid 	smiles	 smilestrue 	smiles	 similartanimoto 	0	 similardice 	0

   15   16  0  0  0  0            999 V3000
M  V30 BEGIN CTAB
M  V30 COUNTS 15 16 0 0 0
M  V30 BEGIN ATOM
M  V30 1 C -2.5391 -0.1953 0.0000 0
M  V30 2 C -1.7578 -1.3672 0.0000 0
M  V30 3 C -1.7578 0.9766 0.0000 0
M  V30 4 C -0.3906 -0.7812 0.0000 0
M  V30 5 C -0.3906 0.5859 0.0000 0
M  V30 6 C 0.7812 1.1719 0.0000 0
M  V30 7 C 1.9531 -0.7812 0.0000 0
M  V30 8 N 0.7812 -1.5625 0.0000 0
M  V30 9 N 1.9531 0.3906 0.0000 0
M  V30 10 H -3.5156 -0.1953 0.0000 0
M  V30 11 H -2.1484 2.1484 0.0000 0
M  V30 12 H -1.9531 -2.3438 0.0000 0
M  V30 13 H 0.9766 2.3438 0.0000 0
M  V30 14 H 2.9297 -1.3672 0.0000 0
M  V30 15 H 2.7344 0.9766 0.0000 0
M  V30 END ATOM
M  V30 BEGIN BOND
M  V30 1 3 1 2
M  V30 2 2 1 3
M  V30 3 1 1 10
M  V30 4 3 2 4
M  V30 5 1 2 12
M  V30 6 2 3 5
M  V30 7 1 3 11
M  V30 8 1 4 5
M  V30 9 1 4 8
M  V30 10 3 5 6
M  V30 11 1 6 9
M  V30 12 1 6 13
M  V30 13 1 7 8
M  V30 14 1 7 9
M  V30 15 1 7 14
M  V30 16 1 9 15
M  V30 END BOND
M  V30 END CTAB
M  END
>  <ID>
555
$$$$
Structure_556
Score 	 10.0, smilesprid 	smiles	 smilestrue 	smiles	 similartanimoto 	0	 similardice 	0

   15   16  0  0  0  0            999 V3000
M  V30 BEGIN CTAB
M  V30 COUNTS 15 16 0 0 0
M  V30 BEGIN ATOM
M  V30 1 C -2.5391 -0.1953 0.0000 0
M  V30 2 C -1.7578 -1.3672 0.0000 0
M  V30 3 C -1.7578 0.9766 0.0000 0
M  V30 4 C -0.3906 -0.7812 0.0000 0
M  V30 5 C -0.3906 0.5859 0.0000 0
M  V30 6 C 0.7812 1.1719 0.0000 0
M  V30 7 C 1.9531 -0.7812 0.0000 0
M  V30 8 N 0.7812 -1.5625 0.0000 0
M  V30 9 N 1.9531 0.3906 0.0000 0
M  V30 10 H -3.5156 -0.1953 0.0000 0
M  V30 11 H -2.1484 2.1484 0.0000 0
M  V30 12 H -1.9531 -2.3438 0.0000 0
M  V30 13 H 0.9766 2.3438 0.0000 0
M  V30 14 H 2.9297 -1.3672 0.0000 0
M  V30 15 H 2.7344 0.9766 0.0000 0
M  V30 END ATOM
M  V30 BEGIN BOND
M  V30 1 1 1 2
M  V30 2 3 1 3
M  V30 3 1 1 10
M  V30 4 3 2 4
M  V30 5 1 2 12
M  V30 6 2 3 5
M  V30 7 1 3 11
M  V30 8 1 4 5
M  V30 9 1 4 8
M  V30 10 3 5 6
M  V30 11 1 6 9
M  V30 12 1 6 13
M  V30 13 1 7 8
M  V30 14 1 7 9
M  V30 15 1 7 14
M  V30 16 1 9 15
M  V30 END BOND
M  V30 END CTAB
M  END
>  <ID>
556
$$$$
Structure_557
Score 	 12.0, smilesprid 	smiles	 smilestrue 	smiles	 similartanimoto 	0	 similardice 	0

   15   16  0  0  0  0            999 V3000
M  V30 BEGIN CTAB
M  V30 COUNTS 15 16 0 0 0
M  V30 BEGIN ATOM
M  V30 1 C -2.5391 -0.1953 0.0000 0
M  V30 2 C -1.7578 -1.3672 0.0000 0
M  V30 3 C -1.7578 0.9766 0.0000 0
M  V30 4 C -0.3906 -0.7812 0.0000 0
M  V30 5 C -0.3906 0.5859 0.0000 0
M  V30 6 C 0.7812 1.1719 0.0000 0
M  V30 7 C 1.9531 -0.7812 0.0000 0
M  V30 8 N 0.7812 -1.5625 0.0000 0
M  V30 9 N 1.9531 0.3906 0.0000 0
M  V30 10 H -3.5156 -0.1953 0.0000 0
M  V30 11 H -2.1484 2.1484 0.0000 0
M  V30 12 H -1.9531 -2.3438 0.0000 0
M  V30 13 H 0.9766 2.3438 0.0000 0
M  V30 14 H 2.9297 -1.3672 0.0000 0
M  V30 15 H 2.7344 0.9766 0.0000 0
M  V30 END ATOM
M  V30 BEGIN BOND
M  V30 1 2 1 2
M  V30 2 3 1 3
M  V30 3 1 1 10
M  V30 4 3 2 4
M  V30 5 1 2 12
M  V30 6 2 3 5
M  V30 7 1 3 11
M  V30 8 1 4 5
M  V30 9 1 4 8
M  V30 10 3 5 6
M  V30 11 1 6 9
M  V30 12 1 6 13
M  V30 13 1 7 8
M  V30 14 1 7 9
M  V30 15 1 7 14
M  V30 16 1 9 15
M  V30 END BOND
M  V30 END CTAB
M  END
>  <ID>
557
$$$$
Structure_558
Score 	 14.0, smilesprid 	smiles	 smilestrue 	smiles	 similartanimoto 	0	 similardice 	0

   15   16  0  0  0  0            999 V3000
M  V30 BEGIN CTAB
M  V30 COUNTS 15 16 0 0 0
M  V30 BEGIN ATOM
M  V30 1 C -2.5391 -0.1953 0.0000 0
M  V30 2 C -1.7578 -1.3672 0.0000 0
M  V30 3 C -1.7578 0.9766 0.0000 0
M  V30 4 C -0.3906 -0.7812 0.0000 0
M  V30 5 C -0.3906 0.5859 0.0000 0
M  V30 6 C 0.7812 1.1719 0.0000 0
M  V30 7 C 1.9531 -0.7812 0.0000 0
M  V30 8 N 0.7812 -1.5625 0.0000 0
M  V30 9 N 1.9531 0.3906 0.0000 0
M  V30 10 H -3.5156 -0.1953 0.0000 0
M  V30 11 H -2.1484 2.1484 0.0000 0
M  V30 12 H -1.9531 -2.3438 0.0000 0
M  V30 13 H 0.9766 2.3438 0.0000 0
M  V30 14 H 2.9297 -1.3672 0.0000 0
M  V30 15 H 2.7344 0.9766 0.0000 0
M  V30 END ATOM
M  V30 BEGIN BOND
M  V30 1 3 1 2
M  V30 2 3 1 3
M  V30 3 1 1 10
M  V30 4 3 2 4
M  V30 5 1 2 12
M  V30 6 2 3 5
M  V30 7 1 3 11
M  V30 8 1 4 5
M  V30 9 1 4 8
M  V30 10 3 5 6
M  V30 11 1 6 9
M  V30 12 1 6 13
M  V30 13 1 7 8
M  V30 14 1 7 9
M  V30 15 1 7 14
M  V30 16 1 9 15
M  V30 END BOND
M  V30 END CTAB
M  END
>  <ID>
558
$$$$
Structure_559
Score 	 10.0, smilesprid 	smiles	 smilestrue 	smiles	 similartanimoto 	0	 similardice 	0

   15   16  0  0  0  0            999 V3000
M  V30 BEGIN CTAB
M  V30 COUNTS 15 16 0 0 0
M  V30 BEGIN ATOM
M  V30 1 C -2.5391 -0.1953 0.0000 0
M  V30 2 C -1.7578 -1.3672 0.0000 0
M  V30 3 C -1.7578 0.9766 0.0000 0
M  V30 4 C -0.3906 -0.7812 0.0000 0
M  V30 5 C -0.3906 0.5859 0.0000 0
M  V30 6 C 0.7812 1.1719 0.0000 0
M  V30 7 C 1.9531 -0.7812 0.0000 0
M  V30 8 N 0.7812 -1.5625 0.0000 0
M  V30 9 N 1.9531 0.3906 0.0000 0
M  V30 10 H -3.5156 -0.1953 0.0000 0
M  V30 11 H -2.1484 2.1484 0.0000 0
M  V30 12 H -1.9531 -2.3438 0.0000 0
M  V30 13 H 0.9766 2.3438 0.0000 0
M  V30 14 H 2.9297 -1.3672 0.0000 0
M  V30 15 H 2.7344 0.9766 0.0000 0
M  V30 END ATOM
M  V30 BEGIN BOND
M  V30 1 1 1 2
M  V30 2 1 1 3
M  V30 3 1 1 10
M  V30 4 3 2 4
M  V30 5 1 2 12
M  V30 6 3 3 5
M  V30 7 1 3 11
M  V30 8 1 4 5
M  V30 9 1 4 8
M  V30 10 3 5 6
M  V30 11 1 6 9
M  V30 12 1 6 13
M  V30 13 1 7 8
M  V30 14 1 7 9
M  V30 15 1 7 14
M  V30 16 1 9 15
M  V30 END BOND
M  V30 END CTAB
M  END
>  <ID>
559
$$$$
Structure_560
Score 	 10.0, smilesprid 	smiles	 smilestrue 	smiles	 similartanimoto 	0	 similardice 	0

   15   16  0  0  0  0            999 V3000
M  V30 BEGIN CTAB
M  V30 COUNTS 15 16 0 0 0
M  V30 BEGIN ATOM
M  V30 1 C -2.5391 -0.1953 0.0000 0
M  V30 2 C -1.7578 -1.3672 0.0000 0
M  V30 3 C -1.7578 0.9766 0.0000 0
M  V30 4 C -0.3906 -0.7812 0.0000 0
M  V30 5 C -0.3906 0.5859 0.0000 0
M  V30 6 C 0.7812 1.1719 0.0000 0
M  V30 7 C 1.9531 -0.7812 0.0000 0
M  V30 8 N 0.7812 -1.5625 0.0000 0
M  V30 9 N 1.9531 0.3906 0.0000 0
M  V30 10 H -3.5156 -0.1953 0.0000 0
M  V30 11 H -2.1484 2.1484 0.0000 0
M  V30 12 H -1.9531 -2.3438 0.0000 0
M  V30 13 H 0.9766 2.3438 0.0000 0
M  V30 14 H 2.9297 -1.3672 0.0000 0
M  V30 15 H 2.7344 0.9766 0.0000 0
M  V30 END ATOM
M  V30 BEGIN BOND
M  V30 1 2 1 2
M  V30 2 1 1 3
M  V30 3 1 1 10
M  V30 4 3 2 4
M  V30 5 1 2 12
M  V30 6 3 3 5
M  V30 7 1 3 11
M  V30 8 1 4 5
M  V30 9 1 4 8
M  V30 10 3 5 6
M  V30 11 1 6 9
M  V30 12 1 6 13
M  V30 13 1 7 8
M  V30 14 1 7 9
M  V30 15 1 7 14
M  V30 16 1 9 15
M  V30 END BOND
M  V30 END CTAB
M  END
>  <ID>
560
$$$$
Structure_561
Score 	 12.0, smilesprid 	smiles	 smilestrue 	smiles	 similartanimoto 	0	 similardice 	0

   15   16  0  0  0  0            999 V3000
M  V30 BEGIN CTAB
M  V30 COUNTS 15 16 0 0 0
M  V30 BEGIN ATOM
M  V30 1 C -2.5391 -0.1953 0.0000 0
M  V30 2 C -1.7578 -1.3672 0.0000 0
M  V30 3 C -1.7578 0.9766 0.0000 0
M  V30 4 C -0.3906 -0.7812 0.0000 0
M  V30 5 C -0.3906 0.5859 0.0000 0
M  V30 6 C 0.7812 1.1719 0.0000 0
M  V30 7 C 1.9531 -0.7812 0.0000 0
M  V30 8 N 0.7812 -1.5625 0.0000 0
M  V30 9 N 1.9531 0.3906 0.0000 0
M  V30 10 H -3.5156 -0.1953 0.0000 0
M  V30 11 H -2.1484 2.1484 0.0000 0
M  V30 12 H -1.9531 -2.3438 0.0000 0
M  V30 13 H 0.9766 2.3438 0.0000 0
M  V30 14 H 2.9297 -1.3672 0.0000 0
M  V30 15 H 2.7344 0.9766 0.0000 0
M  V30 END ATOM
M  V30 BEGIN BOND
M  V30 1 3 1 2
M  V30 2 1 1 3
M  V30 3 1 1 10
M  V30 4 3 2 4
M  V30 5 1 2 12
M  V30 6 3 3 5
M  V30 7 1 3 11
M  V30 8 1 4 5
M  V30 9 1 4 8
M  V30 10 3 5 6
M  V30 11 1 6 9
M  V30 12 1 6 13
M  V30 13 1 7 8
M  V30 14 1 7 9
M  V30 15 1 7 14
M  V30 16 1 9 15
M  V30 END BOND
M  V30 END CTAB
M  END
>  <ID>
561
$$$$
Structure_562
Score 	 10.0, smilesprid 	smiles	 smilestrue 	smiles	 similartanimoto 	0	 similardice 	0

   15   16  0  0  0  0            999 V3000
M  V30 BEGIN CTAB
M  V30 COUNTS 15 16 0 0 0
M  V30 BEGIN ATOM
M  V30 1 C -2.5391 -0.1953 0.0000 0
M  V30 2 C -1.7578 -1.3672 0.0000 0
M  V30 3 C -1.7578 0.9766 0.0000 0
M  V30 4 C -0.3906 -0.7812 0.0000 0
M  V30 5 C -0.3906 0.5859 0.0000 0
M  V30 6 C 0.7812 1.1719 0.0000 0
M  V30 7 C 1.9531 -0.7812 0.0000 0
M  V30 8 N 0.7812 -1.5625 0.0000 0
M  V30 9 N 1.9531 0.3906 0.0000 0
M  V30 10 H -3.5156 -0.1953 0.0000 0
M  V30 11 H -2.1484 2.1484 0.0000 0
M  V30 12 H -1.9531 -2.3438 0.0000 0
M  V30 13 H 0.9766 2.3438 0.0000 0
M  V30 14 H 2.9297 -1.3672 0.0000 0
M  V30 15 H 2.7344 0.9766 0.0000 0
M  V30 END ATOM
M  V30 BEGIN BOND
M  V30 1 1 1 2
M  V30 2 2 1 3
M  V30 3 1 1 10
M  V30 4 3 2 4
M  V30 5 1 2 12
M  V30 6 3 3 5
M  V30 7 1 3 11
M  V30 8 1 4 5
M  V30 9 1 4 8
M  V30 10 3 5 6
M  V30 11 1 6 9
M  V30 12 1 6 13
M  V30 13 1 7 8
M  V30 14 1 7 9
M  V30 15 1 7 14
M  V30 16 1 9 15
M  V30 END BOND
M  V30 END CTAB
M  END
>  <ID>
562
$$$$
Structure_563
Score 	 12.0, smilesprid 	smiles	 smilestrue 	smiles	 similartanimoto 	0	 similardice 	0

   15   16  0  0  0  0            999 V3000
M  V30 BEGIN CTAB
M  V30 COUNTS 15 16 0 0 0
M  V30 BEGIN ATOM
M  V30 1 C -2.5391 -0.1953 0.0000 0
M  V30 2 C -1.7578 -1.3672 0.0000 0
M  V30 3 C -1.7578 0.9766 0.0000 0
M  V30 4 C -0.3906 -0.7812 0.0000 0
M  V30 5 C -0.3906 0.5859 0.0000 0
M  V30 6 C 0.7812 1.1719 0.0000 0
M  V30 7 C 1.9531 -0.7812 0.0000 0
M  V30 8 N 0.7812 -1.5625 0.0000 0
M  V30 9 N 1.9531 0.3906 0.0000 0
M  V30 10 H -3.5156 -0.1953 0.0000 0
M  V30 11 H -2.1484 2.1484 0.0000 0
M  V30 12 H -1.9531 -2.3438 0.0000 0
M  V30 13 H 0.9766 2.3438 0.0000 0
M  V30 14 H 2.9297 -1.3672 0.0000 0
M  V30 15 H 2.7344 0.9766 0.0000 0
M  V30 END ATOM
M  V30 BEGIN BOND
M  V30 1 2 1 2
M  V30 2 2 1 3
M  V30 3 1 1 10
M  V30 4 3 2 4
M  V30 5 1 2 12
M  V30 6 3 3 5
M  V30 7 1 3 11
M  V30 8 1 4 5
M  V30 9 1 4 8
M  V30 10 3 5 6
M  V30 11 1 6 9
M  V30 12 1 6 13
M  V30 13 1 7 8
M  V30 14 1 7 9
M  V30 15 1 7 14
M  V30 16 1 9 15
M  V30 END BOND
M  V30 END CTAB
M  END
>  <ID>
563
$$$$
Structure_564
Score 	 14.0, smilesprid 	smiles	 smilestrue 	smiles	 similartanimoto 	0	 similardice 	0

   15   16  0  0  0  0            999 V3000
M  V30 BEGIN CTAB
M  V30 COUNTS 15 16 0 0 0
M  V30 BEGIN ATOM
M  V30 1 C -2.5391 -0.1953 0.0000 0
M  V30 2 C -1.7578 -1.3672 0.0000 0
M  V30 3 C -1.7578 0.9766 0.0000 0
M  V30 4 C -0.3906 -0.7812 0.0000 0
M  V30 5 C -0.3906 0.5859 0.0000 0
M  V30 6 C 0.7812 1.1719 0.0000 0
M  V30 7 C 1.9531 -0.7812 0.0000 0
M  V30 8 N 0.7812 -1.5625 0.0000 0
M  V30 9 N 1.9531 0.3906 0.0000 0
M  V30 10 H -3.5156 -0.1953 0.0000 0
M  V30 11 H -2.1484 2.1484 0.0000 0
M  V30 12 H -1.9531 -2.3438 0.0000 0
M  V30 13 H 0.9766 2.3438 0.0000 0
M  V30 14 H 2.9297 -1.3672 0.0000 0
M  V30 15 H 2.7344 0.9766 0.0000 0
M  V30 END ATOM
M  V30 BEGIN BOND
M  V30 1 3 1 2
M  V30 2 2 1 3
M  V30 3 1 1 10
M  V30 4 3 2 4
M  V30 5 1 2 12
M  V30 6 3 3 5
M  V30 7 1 3 11
M  V30 8 1 4 5
M  V30 9 1 4 8
M  V30 10 3 5 6
M  V30 11 1 6 9
M  V30 12 1 6 13
M  V30 13 1 7 8
M  V30 14 1 7 9
M  V30 15 1 7 14
M  V30 16 1 9 15
M  V30 END BOND
M  V30 END CTAB
M  END
>  <ID>
564
$$$$
Structure_565
Score 	 12.0, smilesprid 	smiles	 smilestrue 	smiles	 similartanimoto 	0	 similardice 	0

   15   16  0  0  0  0            999 V3000
M  V30 BEGIN CTAB
M  V30 COUNTS 15 16 0 0 0
M  V30 BEGIN ATOM
M  V30 1 C -2.5391 -0.1953 0.0000 0
M  V30 2 C -1.7578 -1.3672 0.0000 0
M  V30 3 C -1.7578 0.9766 0.0000 0
M  V30 4 C -0.3906 -0.7812 0.0000 0
M  V30 5 C -0.3906 0.5859 0.0000 0
M  V30 6 C 0.7812 1.1719 0.0000 0
M  V30 7 C 1.9531 -0.7812 0.0000 0
M  V30 8 N 0.7812 -1.5625 0.0000 0
M  V30 9 N 1.9531 0.3906 0.0000 0
M  V30 10 H -3.5156 -0.1953 0.0000 0
M  V30 11 H -2.1484 2.1484 0.0000 0
M  V30 12 H -1.9531 -2.3438 0.0000 0
M  V30 13 H 0.9766 2.3438 0.0000 0
M  V30 14 H 2.9297 -1.3672 0.0000 0
M  V30 15 H 2.7344 0.9766 0.0000 0
M  V30 END ATOM
M  V30 BEGIN BOND
M  V30 1 1 1 2
M  V30 2 3 1 3
M  V30 3 1 1 10
M  V30 4 3 2 4
M  V30 5 1 2 12
M  V30 6 3 3 5
M  V30 7 1 3 11
M  V30 8 1 4 5
M  V30 9 1 4 8
M  V30 10 3 5 6
M  V30 11 1 6 9
M  V30 12 1 6 13
M  V30 13 1 7 8
M  V30 14 1 7 9
M  V30 15 1 7 14
M  V30 16 1 9 15
M  V30 END BOND
M  V30 END CTAB
M  END
>  <ID>
565
$$$$
Structure_566
Score 	 14.0, smilesprid 	smiles	 smilestrue 	smiles	 similartanimoto 	0	 similardice 	0

   15   16  0  0  0  0            999 V3000
M  V30 BEGIN CTAB
M  V30 COUNTS 15 16 0 0 0
M  V30 BEGIN ATOM
M  V30 1 C -2.5391 -0.1953 0.0000 0
M  V30 2 C -1.7578 -1.3672 0.0000 0
M  V30 3 C -1.7578 0.9766 0.0000 0
M  V30 4 C -0.3906 -0.7812 0.0000 0
M  V30 5 C -0.3906 0.5859 0.0000 0
M  V30 6 C 0.7812 1.1719 0.0000 0
M  V30 7 C 1.9531 -0.7812 0.0000 0
M  V30 8 N 0.7812 -1.5625 0.0000 0
M  V30 9 N 1.9531 0.3906 0.0000 0
M  V30 10 H -3.5156 -0.1953 0.0000 0
M  V30 11 H -2.1484 2.1484 0.0000 0
M  V30 12 H -1.9531 -2.3438 0.0000 0
M  V30 13 H 0.9766 2.3438 0.0000 0
M  V30 14 H 2.9297 -1.3672 0.0000 0
M  V30 15 H 2.7344 0.9766 0.0000 0
M  V30 END ATOM
M  V30 BEGIN BOND
M  V30 1 2 1 2
M  V30 2 3 1 3
M  V30 3 1 1 10
M  V30 4 3 2 4
M  V30 5 1 2 12
M  V30 6 3 3 5
M  V30 7 1 3 11
M  V30 8 1 4 5
M  V30 9 1 4 8
M  V30 10 3 5 6
M  V30 11 1 6 9
M  V30 12 1 6 13
M  V30 13 1 7 8
M  V30 14 1 7 9
M  V30 15 1 7 14
M  V30 16 1 9 15
M  V30 END BOND
M  V30 END CTAB
M  END
>  <ID>
566
$$$$
Structure_567
Score 	 16.0, smilesprid 	smiles	 smilestrue 	smiles	 similartanimoto 	0	 similardice 	0

   15   16  0  0  0  0            999 V3000
M  V30 BEGIN CTAB
M  V30 COUNTS 15 16 0 0 0
M  V30 BEGIN ATOM
M  V30 1 C -2.5391 -0.1953 0.0000 0
M  V30 2 C -1.7578 -1.3672 0.0000 0
M  V30 3 C -1.7578 0.9766 0.0000 0
M  V30 4 C -0.3906 -0.7812 0.0000 0
M  V30 5 C -0.3906 0.5859 0.0000 0
M  V30 6 C 0.7812 1.1719 0.0000 0
M  V30 7 C 1.9531 -0.7812 0.0000 0
M  V30 8 N 0.7812 -1.5625 0.0000 0
M  V30 9 N 1.9531 0.3906 0.0000 0
M  V30 10 H -3.5156 -0.1953 0.0000 0
M  V30 11 H -2.1484 2.1484 0.0000 0
M  V30 12 H -1.9531 -2.3438 0.0000 0
M  V30 13 H 0.9766 2.3438 0.0000 0
M  V30 14 H 2.9297 -1.3672 0.0000 0
M  V30 15 H 2.7344 0.9766 0.0000 0
M  V30 END ATOM
M  V30 BEGIN BOND
M  V30 1 3 1 2
M  V30 2 3 1 3
M  V30 3 1 1 10
M  V30 4 3 2 4
M  V30 5 1 2 12
M  V30 6 3 3 5
M  V30 7 1 3 11
M  V30 8 1 4 5
M  V30 9 1 4 8
M  V30 10 3 5 6
M  V30 11 1 6 9
M  V30 12 1 6 13
M  V30 13 1 7 8
M  V30 14 1 7 9
M  V30 15 1 7 14
M  V30 16 1 9 15
M  V30 END BOND
M  V30 END CTAB
M  END
>  <ID>
567
$$$$
Structure_568
Score 	 8.0, smilesprid 	smiles	 smilestrue 	smiles	 similartanimoto 	0	 similardice 	0

   15   16  0  0  0  0            999 V3000
M  V30 BEGIN CTAB
M  V30 COUNTS 15 16 0 0 0
M  V30 BEGIN ATOM
M  V30 1 C -2.5391 -0.1953 0.0000 0
M  V30 2 C -1.7578 -1.3672 0.0000 0
M  V30 3 C -1.7578 0.9766 0.0000 0
M  V30 4 C -0.3906 -0.7812 0.0000 0
M  V30 5 C -0.3906 0.5859 0.0000 0
M  V30 6 C 0.7812 1.1719 0.0000 0
M  V30 7 C 1.9531 -0.7812 0.0000 0
M  V30 8 N 0.7812 -1.5625 0.0000 0
M  V30 9 N 1.9531 0.3906 0.0000 0
M  V30 10 H -3.5156 -0.1953 0.0000 0
M  V30 11 H -2.1484 2.1484 0.0000 0
M  V30 12 H -1.9531 -2.3438 0.0000 0
M  V30 13 H 0.9766 2.3438 0.0000 0
M  V30 14 H 2.9297 -1.3672 0.0000 0
M  V30 15 H 2.7344 0.9766 0.0000 0
M  V30 END ATOM
M  V30 BEGIN BOND
M  V30 1 1 1 2
M  V30 2 1 1 3
M  V30 3 1 1 10
M  V30 4 1 2 4
M  V30 5 1 2 12
M  V30 6 1 3 5
M  V30 7 1 3 11
M  V30 8 2 4 5
M  V30 9 1 4 8
M  V30 10 3 5 6
M  V30 11 1 6 9
M  V30 12 1 6 13
M  V30 13 1 7 8
M  V30 14 1 7 9
M  V30 15 1 7 14
M  V30 16 1 9 15
M  V30 END BOND
M  V30 END CTAB
M  END
>  <ID>
568
$$$$
Structure_569
Score 	 6.0, smilesprid 	smiles	 smilestrue 	smiles	 similartanimoto 	0	 similardice 	0

   15   16  0  0  0  0            999 V3000
M  V30 BEGIN CTAB
M  V30 COUNTS 15 16 0 0 0
M  V30 BEGIN ATOM
M  V30 1 C -2.5391 -0.1953 0.0000 0
M  V30 2 C -1.7578 -1.3672 0.0000 0
M  V30 3 C -1.7578 0.9766 0.0000 0
M  V30 4 C -0.3906 -0.7812 0.0000 0
M  V30 5 C -0.3906 0.5859 0.0000 0
M  V30 6 C 0.7812 1.1719 0.0000 0
M  V30 7 C 1.9531 -0.7812 0.0000 0
M  V30 8 N 0.7812 -1.5625 0.0000 0
M  V30 9 N 1.9531 0.3906 0.0000 0
M  V30 10 H -3.5156 -0.1953 0.0000 0
M  V30 11 H -2.1484 2.1484 0.0000 0
M  V30 12 H -1.9531 -2.3438 0.0000 0
M  V30 13 H 0.9766 2.3438 0.0000 0
M  V30 14 H 2.9297 -1.3672 0.0000 0
M  V30 15 H 2.7344 0.9766 0.0000 0
M  V30 END ATOM
M  V30 BEGIN BOND
M  V30 1 2 1 2
M  V30 2 1 1 3
M  V30 3 1 1 10
M  V30 4 1 2 4
M  V30 5 1 2 12
M  V30 6 1 3 5
M  V30 7 1 3 11
M  V30 8 2 4 5
M  V30 9 1 4 8
M  V30 10 3 5 6
M  V30 11 1 6 9
M  V30 12 1 6 13
M  V30 13 1 7 8
M  V30 14 1 7 9
M  V30 15 1 7 14
M  V30 16 1 9 15
M  V30 END BOND
M  V30 END CTAB
M  END
>  <ID>
569
$$$$
Structure_570
Score 	 8.0, smilesprid 	smiles	 smilestrue 	smiles	 similartanimoto 	0	 similardice 	0

   15   16  0  0  0  0            999 V3000
M  V30 BEGIN CTAB
M  V30 COUNTS 15 16 0 0 0
M  V30 BEGIN ATOM
M  V30 1 C -2.5391 -0.1953 0.0000 0
M  V30 2 C -1.7578 -1.3672 0.0000 0
M  V30 3 C -1.7578 0.9766 0.0000 0
M  V30 4 C -0.3906 -0.7812 0.0000 0
M  V30 5 C -0.3906 0.5859 0.0000 0
M  V30 6 C 0.7812 1.1719 0.0000 0
M  V30 7 C 1.9531 -0.7812 0.0000 0
M  V30 8 N 0.7812 -1.5625 0.0000 0
M  V30 9 N 1.9531 0.3906 0.0000 0
M  V30 10 H -3.5156 -0.1953 0.0000 0
M  V30 11 H -2.1484 2.1484 0.0000 0
M  V30 12 H -1.9531 -2.3438 0.0000 0
M  V30 13 H 0.9766 2.3438 0.0000 0
M  V30 14 H 2.9297 -1.3672 0.0000 0
M  V30 15 H 2.7344 0.9766 0.0000 0
M  V30 END ATOM
M  V30 BEGIN BOND
M  V30 1 3 1 2
M  V30 2 1 1 3
M  V30 3 1 1 10
M  V30 4 1 2 4
M  V30 5 1 2 12
M  V30 6 1 3 5
M  V30 7 1 3 11
M  V30 8 2 4 5
M  V30 9 1 4 8
M  V30 10 3 5 6
M  V30 11 1 6 9
M  V30 12 1 6 13
M  V30 13 1 7 8
M  V30 14 1 7 9
M  V30 15 1 7 14
M  V30 16 1 9 15
M  V30 END BOND
M  V30 END CTAB
M  END
>  <ID>
570
$$$$
Structure_571
Score 	 6.0, smilesprid 	smiles	 smilestrue 	smiles	 similartanimoto 	0	 similardice 	0

   15   16  0  0  0  0            999 V3000
M  V30 BEGIN CTAB
M  V30 COUNTS 15 16 0 0 0
M  V30 BEGIN ATOM
M  V30 1 C -2.5391 -0.1953 0.0000 0
M  V30 2 C -1.7578 -1.3672 0.0000 0
M  V30 3 C -1.7578 0.9766 0.0000 0
M  V30 4 C -0.3906 -0.7812 0.0000 0
M  V30 5 C -0.3906 0.5859 0.0000 0
M  V30 6 C 0.7812 1.1719 0.0000 0
M  V30 7 C 1.9531 -0.7812 0.0000 0
M  V30 8 N 0.7812 -1.5625 0.0000 0
M  V30 9 N 1.9531 0.3906 0.0000 0
M  V30 10 H -3.5156 -0.1953 0.0000 0
M  V30 11 H -2.1484 2.1484 0.0000 0
M  V30 12 H -1.9531 -2.3438 0.0000 0
M  V30 13 H 0.9766 2.3438 0.0000 0
M  V30 14 H 2.9297 -1.3672 0.0000 0
M  V30 15 H 2.7344 0.9766 0.0000 0
M  V30 END ATOM
M  V30 BEGIN BOND
M  V30 1 1 1 2
M  V30 2 2 1 3
M  V30 3 1 1 10
M  V30 4 1 2 4
M  V30 5 1 2 12
M  V30 6 1 3 5
M  V30 7 1 3 11
M  V30 8 2 4 5
M  V30 9 1 4 8
M  V30 10 3 5 6
M  V30 11 1 6 9
M  V30 12 1 6 13
M  V30 13 1 7 8
M  V30 14 1 7 9
M  V30 15 1 7 14
M  V30 16 1 9 15
M  V30 END BOND
M  V30 END CTAB
M  END
>  <ID>
571
$$$$
Structure_572
Score 	 6.0, smilesprid 	smiles	 smilestrue 	smiles	 similartanimoto 	0	 similardice 	0

   15   16  0  0  0  0            999 V3000
M  V30 BEGIN CTAB
M  V30 COUNTS 15 16 0 0 0
M  V30 BEGIN ATOM
M  V30 1 C -2.5391 -0.1953 0.0000 0
M  V30 2 C -1.7578 -1.3672 0.0000 0
M  V30 3 C -1.7578 0.9766 0.0000 0
M  V30 4 C -0.3906 -0.7812 0.0000 0
M  V30 5 C -0.3906 0.5859 0.0000 0
M  V30 6 C 0.7812 1.1719 0.0000 0
M  V30 7 C 1.9531 -0.7812 0.0000 0
M  V30 8 N 0.7812 -1.5625 0.0000 0
M  V30 9 N 1.9531 0.3906 0.0000 0
M  V30 10 H -3.5156 -0.1953 0.0000 0
M  V30 11 H -2.1484 2.1484 0.0000 0
M  V30 12 H -1.9531 -2.3438 0.0000 0
M  V30 13 H 0.9766 2.3438 0.0000 0
M  V30 14 H 2.9297 -1.3672 0.0000 0
M  V30 15 H 2.7344 0.9766 0.0000 0
M  V30 END ATOM
M  V30 BEGIN BOND
M  V30 1 2 1 2
M  V30 2 2 1 3
M  V30 3 1 1 10
M  V30 4 1 2 4
M  V30 5 1 2 12
M  V30 6 1 3 5
M  V30 7 1 3 11
M  V30 8 2 4 5
M  V30 9 1 4 8
M  V30 10 3 5 6
M  V30 11 1 6 9
M  V30 12 1 6 13
M  V30 13 1 7 8
M  V30 14 1 7 9
M  V30 15 1 7 14
M  V30 16 1 9 15
M  V30 END BOND
M  V30 END CTAB
M  END
>  <ID>
572
$$$$
Structure_573
Score 	 8.0, smilesprid 	smiles	 smilestrue 	smiles	 similartanimoto 	0	 similardice 	0

   15   16  0  0  0  0            999 V3000
M  V30 BEGIN CTAB
M  V30 COUNTS 15 16 0 0 0
M  V30 BEGIN ATOM
M  V30 1 C -2.5391 -0.1953 0.0000 0
M  V30 2 C -1.7578 -1.3672 0.0000 0
M  V30 3 C -1.7578 0.9766 0.0000 0
M  V30 4 C -0.3906 -0.7812 0.0000 0
M  V30 5 C -0.3906 0.5859 0.0000 0
M  V30 6 C 0.7812 1.1719 0.0000 0
M  V30 7 C 1.9531 -0.7812 0.0000 0
M  V30 8 N 0.7812 -1.5625 0.0000 0
M  V30 9 N 1.9531 0.3906 0.0000 0
M  V30 10 H -3.5156 -0.1953 0.0000 0
M  V30 11 H -2.1484 2.1484 0.0000 0
M  V30 12 H -1.9531 -2.3438 0.0000 0
M  V30 13 H 0.9766 2.3438 0.0000 0
M  V30 14 H 2.9297 -1.3672 0.0000 0
M  V30 15 H 2.7344 0.9766 0.0000 0
M  V30 END ATOM
M  V30 BEGIN BOND
M  V30 1 3 1 2
M  V30 2 2 1 3
M  V30 3 1 1 10
M  V30 4 1 2 4
M  V30 5 1 2 12
M  V30 6 1 3 5
M  V30 7 1 3 11
M  V30 8 2 4 5
M  V30 9 1 4 8
M  V30 10 3 5 6
M  V30 11 1 6 9
M  V30 12 1 6 13
M  V30 13 1 7 8
M  V30 14 1 7 9
M  V30 15 1 7 14
M  V30 16 1 9 15
M  V30 END BOND
M  V30 END CTAB
M  END
>  <ID>
573
$$$$
Structure_574
Score 	 8.0, smilesprid 	smiles	 smilestrue 	smiles	 similartanimoto 	0	 similardice 	0

   15   16  0  0  0  0            999 V3000
M  V30 BEGIN CTAB
M  V30 COUNTS 15 16 0 0 0
M  V30 BEGIN ATOM
M  V30 1 C -2.5391 -0.1953 0.0000 0
M  V30 2 C -1.7578 -1.3672 0.0000 0
M  V30 3 C -1.7578 0.9766 0.0000 0
M  V30 4 C -0.3906 -0.7812 0.0000 0
M  V30 5 C -0.3906 0.5859 0.0000 0
M  V30 6 C 0.7812 1.1719 0.0000 0
M  V30 7 C 1.9531 -0.7812 0.0000 0
M  V30 8 N 0.7812 -1.5625 0.0000 0
M  V30 9 N 1.9531 0.3906 0.0000 0
M  V30 10 H -3.5156 -0.1953 0.0000 0
M  V30 11 H -2.1484 2.1484 0.0000 0
M  V30 12 H -1.9531 -2.3438 0.0000 0
M  V30 13 H 0.9766 2.3438 0.0000 0
M  V30 14 H 2.9297 -1.3672 0.0000 0
M  V30 15 H 2.7344 0.9766 0.0000 0
M  V30 END ATOM
M  V30 BEGIN BOND
M  V30 1 1 1 2
M  V30 2 3 1 3
M  V30 3 1 1 10
M  V30 4 1 2 4
M  V30 5 1 2 12
M  V30 6 1 3 5
M  V30 7 1 3 11
M  V30 8 2 4 5
M  V30 9 1 4 8
M  V30 10 3 5 6
M  V30 11 1 6 9
M  V30 12 1 6 13
M  V30 13 1 7 8
M  V30 14 1 7 9
M  V30 15 1 7 14
M  V30 16 1 9 15
M  V30 END BOND
M  V30 END CTAB
M  END
>  <ID>
574
$$$$
Structure_575
Score 	 8.0, smilesprid 	smiles	 smilestrue 	smiles	 similartanimoto 	0	 similardice 	0

   15   16  0  0  0  0            999 V3000
M  V30 BEGIN CTAB
M  V30 COUNTS 15 16 0 0 0
M  V30 BEGIN ATOM
M  V30 1 C -2.5391 -0.1953 0.0000 0
M  V30 2 C -1.7578 -1.3672 0.0000 0
M  V30 3 C -1.7578 0.9766 0.0000 0
M  V30 4 C -0.3906 -0.7812 0.0000 0
M  V30 5 C -0.3906 0.5859 0.0000 0
M  V30 6 C 0.7812 1.1719 0.0000 0
M  V30 7 C 1.9531 -0.7812 0.0000 0
M  V30 8 N 0.7812 -1.5625 0.0000 0
M  V30 9 N 1.9531 0.3906 0.0000 0
M  V30 10 H -3.5156 -0.1953 0.0000 0
M  V30 11 H -2.1484 2.1484 0.0000 0
M  V30 12 H -1.9531 -2.3438 0.0000 0
M  V30 13 H 0.9766 2.3438 0.0000 0
M  V30 14 H 2.9297 -1.3672 0.0000 0
M  V30 15 H 2.7344 0.9766 0.0000 0
M  V30 END ATOM
M  V30 BEGIN BOND
M  V30 1 2 1 2
M  V30 2 3 1 3
M  V30 3 1 1 10
M  V30 4 1 2 4
M  V30 5 1 2 12
M  V30 6 1 3 5
M  V30 7 1 3 11
M  V30 8 2 4 5
M  V30 9 1 4 8
M  V30 10 3 5 6
M  V30 11 1 6 9
M  V30 12 1 6 13
M  V30 13 1 7 8
M  V30 14 1 7 9
M  V30 15 1 7 14
M  V30 16 1 9 15
M  V30 END BOND
M  V30 END CTAB
M  END
>  <ID>
575
$$$$
Structure_576
Score 	 10.0, smilesprid 	smiles	 smilestrue 	smiles	 similartanimoto 	0	 similardice 	0

   15   16  0  0  0  0            999 V3000
M  V30 BEGIN CTAB
M  V30 COUNTS 15 16 0 0 0
M  V30 BEGIN ATOM
M  V30 1 C -2.5391 -0.1953 0.0000 0
M  V30 2 C -1.7578 -1.3672 0.0000 0
M  V30 3 C -1.7578 0.9766 0.0000 0
M  V30 4 C -0.3906 -0.7812 0.0000 0
M  V30 5 C -0.3906 0.5859 0.0000 0
M  V30 6 C 0.7812 1.1719 0.0000 0
M  V30 7 C 1.9531 -0.7812 0.0000 0
M  V30 8 N 0.7812 -1.5625 0.0000 0
M  V30 9 N 1.9531 0.3906 0.0000 0
M  V30 10 H -3.5156 -0.1953 0.0000 0
M  V30 11 H -2.1484 2.1484 0.0000 0
M  V30 12 H -1.9531 -2.3438 0.0000 0
M  V30 13 H 0.9766 2.3438 0.0000 0
M  V30 14 H 2.9297 -1.3672 0.0000 0
M  V30 15 H 2.7344 0.9766 0.0000 0
M  V30 END ATOM
M  V30 BEGIN BOND
M  V30 1 3 1 2
M  V30 2 3 1 3
M  V30 3 1 1 10
M  V30 4 1 2 4
M  V30 5 1 2 12
M  V30 6 1 3 5
M  V30 7 1 3 11
M  V30 8 2 4 5
M  V30 9 1 4 8
M  V30 10 3 5 6
M  V30 11 1 6 9
M  V30 12 1 6 13
M  V30 13 1 7 8
M  V30 14 1 7 9
M  V30 15 1 7 14
M  V30 16 1 9 15
M  V30 END BOND
M  V30 END CTAB
M  END
>  <ID>
576
$$$$
Structure_577
Score 	 8.0, smilesprid 	smiles	 smilestrue 	smiles	 similartanimoto 	0	 similardice 	0

   15   16  0  0  0  0            999 V3000
M  V30 BEGIN CTAB
M  V30 COUNTS 15 16 0 0 0
M  V30 BEGIN ATOM
M  V30 1 C -2.5391 -0.1953 0.0000 0
M  V30 2 C -1.7578 -1.3672 0.0000 0
M  V30 3 C -1.7578 0.9766 0.0000 0
M  V30 4 C -0.3906 -0.7812 0.0000 0
M  V30 5 C -0.3906 0.5859 0.0000 0
M  V30 6 C 0.7812 1.1719 0.0000 0
M  V30 7 C 1.9531 -0.7812 0.0000 0
M  V30 8 N 0.7812 -1.5625 0.0000 0
M  V30 9 N 1.9531 0.3906 0.0000 0
M  V30 10 H -3.5156 -0.1953 0.0000 0
M  V30 11 H -2.1484 2.1484 0.0000 0
M  V30 12 H -1.9531 -2.3438 0.0000 0
M  V30 13 H 0.9766 2.3438 0.0000 0
M  V30 14 H 2.9297 -1.3672 0.0000 0
M  V30 15 H 2.7344 0.9766 0.0000 0
M  V30 END ATOM
M  V30 BEGIN BOND
M  V30 1 1 1 2
M  V30 2 1 1 3
M  V30 3 1 1 10
M  V30 4 1 2 4
M  V30 5 1 2 12
M  V30 6 2 3 5
M  V30 7 1 3 11
M  V30 8 2 4 5
M  V30 9 1 4 8
M  V30 10 3 5 6
M  V30 11 1 6 9
M  V30 12 1 6 13
M  V30 13 1 7 8
M  V30 14 1 7 9
M  V30 15 1 7 14
M  V30 16 1 9 15
M  V30 END BOND
M  V30 END CTAB
M  END
>  <ID>
577
$$$$
Structure_578
Score 	 6.0, smilesprid 	smiles	 smilestrue 	smiles	 similartanimoto 	0	 similardice 	0

   15   16  0  0  0  0            999 V3000
M  V30 BEGIN CTAB
M  V30 COUNTS 15 16 0 0 0
M  V30 BEGIN ATOM
M  V30 1 C -2.5391 -0.1953 0.0000 0
M  V30 2 C -1.7578 -1.3672 0.0000 0
M  V30 3 C -1.7578 0.9766 0.0000 0
M  V30 4 C -0.3906 -0.7812 0.0000 0
M  V30 5 C -0.3906 0.5859 0.0000 0
M  V30 6 C 0.7812 1.1719 0.0000 0
M  V30 7 C 1.9531 -0.7812 0.0000 0
M  V30 8 N 0.7812 -1.5625 0.0000 0
M  V30 9 N 1.9531 0.3906 0.0000 0
M  V30 10 H -3.5156 -0.1953 0.0000 0
M  V30 11 H -2.1484 2.1484 0.0000 0
M  V30 12 H -1.9531 -2.3438 0.0000 0
M  V30 13 H 0.9766 2.3438 0.0000 0
M  V30 14 H 2.9297 -1.3672 0.0000 0
M  V30 15 H 2.7344 0.9766 0.0000 0
M  V30 END ATOM
M  V30 BEGIN BOND
M  V30 1 2 1 2
M  V30 2 1 1 3
M  V30 3 1 1 10
M  V30 4 1 2 4
M  V30 5 1 2 12
M  V30 6 2 3 5
M  V30 7 1 3 11
M  V30 8 2 4 5
M  V30 9 1 4 8
M  V30 10 3 5 6
M  V30 11 1 6 9
M  V30 12 1 6 13
M  V30 13 1 7 8
M  V30 14 1 7 9
M  V30 15 1 7 14
M  V30 16 1 9 15
M  V30 END BOND
M  V30 END CTAB
M  END
>  <ID>
578
$$$$
Structure_579
Score 	 8.0, smilesprid 	smiles	 smilestrue 	smiles	 similartanimoto 	0	 similardice 	0

   15   16  0  0  0  0            999 V3000
M  V30 BEGIN CTAB
M  V30 COUNTS 15 16 0 0 0
M  V30 BEGIN ATOM
M  V30 1 C -2.5391 -0.1953 0.0000 0
M  V30 2 C -1.7578 -1.3672 0.0000 0
M  V30 3 C -1.7578 0.9766 0.0000 0
M  V30 4 C -0.3906 -0.7812 0.0000 0
M  V30 5 C -0.3906 0.5859 0.0000 0
M  V30 6 C 0.7812 1.1719 0.0000 0
M  V30 7 C 1.9531 -0.7812 0.0000 0
M  V30 8 N 0.7812 -1.5625 0.0000 0
M  V30 9 N 1.9531 0.3906 0.0000 0
M  V30 10 H -3.5156 -0.1953 0.0000 0
M  V30 11 H -2.1484 2.1484 0.0000 0
M  V30 12 H -1.9531 -2.3438 0.0000 0
M  V30 13 H 0.9766 2.3438 0.0000 0
M  V30 14 H 2.9297 -1.3672 0.0000 0
M  V30 15 H 2.7344 0.9766 0.0000 0
M  V30 END ATOM
M  V30 BEGIN BOND
M  V30 1 3 1 2
M  V30 2 1 1 3
M  V30 3 1 1 10
M  V30 4 1 2 4
M  V30 5 1 2 12
M  V30 6 2 3 5
M  V30 7 1 3 11
M  V30 8 2 4 5
M  V30 9 1 4 8
M  V30 10 3 5 6
M  V30 11 1 6 9
M  V30 12 1 6 13
M  V30 13 1 7 8
M  V30 14 1 7 9
M  V30 15 1 7 14
M  V30 16 1 9 15
M  V30 END BOND
M  V30 END CTAB
M  END
>  <ID>
579
$$$$
Structure_580
Score 	 8.0, smilesprid 	smiles	 smilestrue 	smiles	 similartanimoto 	0	 similardice 	0

   15   16  0  0  0  0            999 V3000
M  V30 BEGIN CTAB
M  V30 COUNTS 15 16 0 0 0
M  V30 BEGIN ATOM
M  V30 1 C -2.5391 -0.1953 0.0000 0
M  V30 2 C -1.7578 -1.3672 0.0000 0
M  V30 3 C -1.7578 0.9766 0.0000 0
M  V30 4 C -0.3906 -0.7812 0.0000 0
M  V30 5 C -0.3906 0.5859 0.0000 0
M  V30 6 C 0.7812 1.1719 0.0000 0
M  V30 7 C 1.9531 -0.7812 0.0000 0
M  V30 8 N 0.7812 -1.5625 0.0000 0
M  V30 9 N 1.9531 0.3906 0.0000 0
M  V30 10 H -3.5156 -0.1953 0.0000 0
M  V30 11 H -2.1484 2.1484 0.0000 0
M  V30 12 H -1.9531 -2.3438 0.0000 0
M  V30 13 H 0.9766 2.3438 0.0000 0
M  V30 14 H 2.9297 -1.3672 0.0000 0
M  V30 15 H 2.7344 0.9766 0.0000 0
M  V30 END ATOM
M  V30 BEGIN BOND
M  V30 1 1 1 2
M  V30 2 2 1 3
M  V30 3 1 1 10
M  V30 4 1 2 4
M  V30 5 1 2 12
M  V30 6 2 3 5
M  V30 7 1 3 11
M  V30 8 2 4 5
M  V30 9 1 4 8
M  V30 10 3 5 6
M  V30 11 1 6 9
M  V30 12 1 6 13
M  V30 13 1 7 8
M  V30 14 1 7 9
M  V30 15 1 7 14
M  V30 16 1 9 15
M  V30 END BOND
M  V30 END CTAB
M  END
>  <ID>
580
$$$$
Structure_581
Score 	 8.0, smilesprid 	smiles	 smilestrue 	smiles	 similartanimoto 	0	 similardice 	0

   15   16  0  0  0  0            999 V3000
M  V30 BEGIN CTAB
M  V30 COUNTS 15 16 0 0 0
M  V30 BEGIN ATOM
M  V30 1 C -2.5391 -0.1953 0.0000 0
M  V30 2 C -1.7578 -1.3672 0.0000 0
M  V30 3 C -1.7578 0.9766 0.0000 0
M  V30 4 C -0.3906 -0.7812 0.0000 0
M  V30 5 C -0.3906 0.5859 0.0000 0
M  V30 6 C 0.7812 1.1719 0.0000 0
M  V30 7 C 1.9531 -0.7812 0.0000 0
M  V30 8 N 0.7812 -1.5625 0.0000 0
M  V30 9 N 1.9531 0.3906 0.0000 0
M  V30 10 H -3.5156 -0.1953 0.0000 0
M  V30 11 H -2.1484 2.1484 0.0000 0
M  V30 12 H -1.9531 -2.3438 0.0000 0
M  V30 13 H 0.9766 2.3438 0.0000 0
M  V30 14 H 2.9297 -1.3672 0.0000 0
M  V30 15 H 2.7344 0.9766 0.0000 0
M  V30 END ATOM
M  V30 BEGIN BOND
M  V30 1 2 1 2
M  V30 2 2 1 3
M  V30 3 1 1 10
M  V30 4 1 2 4
M  V30 5 1 2 12
M  V30 6 2 3 5
M  V30 7 1 3 11
M  V30 8 2 4 5
M  V30 9 1 4 8
M  V30 10 3 5 6
M  V30 11 1 6 9
M  V30 12 1 6 13
M  V30 13 1 7 8
M  V30 14 1 7 9
M  V30 15 1 7 14
M  V30 16 1 9 15
M  V30 END BOND
M  V30 END CTAB
M  END
>  <ID>
581
$$$$
Structure_582
Score 	 10.0, smilesprid 	smiles	 smilestrue 	smiles	 similartanimoto 	0	 similardice 	0

   15   16  0  0  0  0            999 V3000
M  V30 BEGIN CTAB
M  V30 COUNTS 15 16 0 0 0
M  V30 BEGIN ATOM
M  V30 1 C -2.5391 -0.1953 0.0000 0
M  V30 2 C -1.7578 -1.3672 0.0000 0
M  V30 3 C -1.7578 0.9766 0.0000 0
M  V30 4 C -0.3906 -0.7812 0.0000 0
M  V30 5 C -0.3906 0.5859 0.0000 0
M  V30 6 C 0.7812 1.1719 0.0000 0
M  V30 7 C 1.9531 -0.7812 0.0000 0
M  V30 8 N 0.7812 -1.5625 0.0000 0
M  V30 9 N 1.9531 0.3906 0.0000 0
M  V30 10 H -3.5156 -0.1953 0.0000 0
M  V30 11 H -2.1484 2.1484 0.0000 0
M  V30 12 H -1.9531 -2.3438 0.0000 0
M  V30 13 H 0.9766 2.3438 0.0000 0
M  V30 14 H 2.9297 -1.3672 0.0000 0
M  V30 15 H 2.7344 0.9766 0.0000 0
M  V30 END ATOM
M  V30 BEGIN BOND
M  V30 1 3 1 2
M  V30 2 2 1 3
M  V30 3 1 1 10
M  V30 4 1 2 4
M  V30 5 1 2 12
M  V30 6 2 3 5
M  V30 7 1 3 11
M  V30 8 2 4 5
M  V30 9 1 4 8
M  V30 10 3 5 6
M  V30 11 1 6 9
M  V30 12 1 6 13
M  V30 13 1 7 8
M  V30 14 1 7 9
M  V30 15 1 7 14
M  V30 16 1 9 15
M  V30 END BOND
M  V30 END CTAB
M  END
>  <ID>
582
$$$$
Structure_583
Score 	 10.0, smilesprid 	smiles	 smilestrue 	smiles	 similartanimoto 	0	 similardice 	0

   15   16  0  0  0  0            999 V3000
M  V30 BEGIN CTAB
M  V30 COUNTS 15 16 0 0 0
M  V30 BEGIN ATOM
M  V30 1 C -2.5391 -0.1953 0.0000 0
M  V30 2 C -1.7578 -1.3672 0.0000 0
M  V30 3 C -1.7578 0.9766 0.0000 0
M  V30 4 C -0.3906 -0.7812 0.0000 0
M  V30 5 C -0.3906 0.5859 0.0000 0
M  V30 6 C 0.7812 1.1719 0.0000 0
M  V30 7 C 1.9531 -0.7812 0.0000 0
M  V30 8 N 0.7812 -1.5625 0.0000 0
M  V30 9 N 1.9531 0.3906 0.0000 0
M  V30 10 H -3.5156 -0.1953 0.0000 0
M  V30 11 H -2.1484 2.1484 0.0000 0
M  V30 12 H -1.9531 -2.3438 0.0000 0
M  V30 13 H 0.9766 2.3438 0.0000 0
M  V30 14 H 2.9297 -1.3672 0.0000 0
M  V30 15 H 2.7344 0.9766 0.0000 0
M  V30 END ATOM
M  V30 BEGIN BOND
M  V30 1 1 1 2
M  V30 2 3 1 3
M  V30 3 1 1 10
M  V30 4 1 2 4
M  V30 5 1 2 12
M  V30 6 2 3 5
M  V30 7 1 3 11
M  V30 8 2 4 5
M  V30 9 1 4 8
M  V30 10 3 5 6
M  V30 11 1 6 9
M  V30 12 1 6 13
M  V30 13 1 7 8
M  V30 14 1 7 9
M  V30 15 1 7 14
M  V30 16 1 9 15
M  V30 END BOND
M  V30 END CTAB
M  END
>  <ID>
583
$$$$
Structure_584
Score 	 10.0, smilesprid 	smiles	 smilestrue 	smiles	 similartanimoto 	0	 similardice 	0

   15   16  0  0  0  0            999 V3000
M  V30 BEGIN CTAB
M  V30 COUNTS 15 16 0 0 0
M  V30 BEGIN ATOM
M  V30 1 C -2.5391 -0.1953 0.0000 0
M  V30 2 C -1.7578 -1.3672 0.0000 0
M  V30 3 C -1.7578 0.9766 0.0000 0
M  V30 4 C -0.3906 -0.7812 0.0000 0
M  V30 5 C -0.3906 0.5859 0.0000 0
M  V30 6 C 0.7812 1.1719 0.0000 0
M  V30 7 C 1.9531 -0.7812 0.0000 0
M  V30 8 N 0.7812 -1.5625 0.0000 0
M  V30 9 N 1.9531 0.3906 0.0000 0
M  V30 10 H -3.5156 -0.1953 0.0000 0
M  V30 11 H -2.1484 2.1484 0.0000 0
M  V30 12 H -1.9531 -2.3438 0.0000 0
M  V30 13 H 0.9766 2.3438 0.0000 0
M  V30 14 H 2.9297 -1.3672 0.0000 0
M  V30 15 H 2.7344 0.9766 0.0000 0
M  V30 END ATOM
M  V30 BEGIN BOND
M  V30 1 2 1 2
M  V30 2 3 1 3
M  V30 3 1 1 10
M  V30 4 1 2 4
M  V30 5 1 2 12
M  V30 6 2 3 5
M  V30 7 1 3 11
M  V30 8 2 4 5
M  V30 9 1 4 8
M  V30 10 3 5 6
M  V30 11 1 6 9
M  V30 12 1 6 13
M  V30 13 1 7 8
M  V30 14 1 7 9
M  V30 15 1 7 14
M  V30 16 1 9 15
M  V30 END BOND
M  V30 END CTAB
M  END
>  <ID>
584
$$$$
Structure_585
Score 	 12.0, smilesprid 	smiles	 smilestrue 	smiles	 similartanimoto 	0	 similardice 	0

   15   16  0  0  0  0            999 V3000
M  V30 BEGIN CTAB
M  V30 COUNTS 15 16 0 0 0
M  V30 BEGIN ATOM
M  V30 1 C -2.5391 -0.1953 0.0000 0
M  V30 2 C -1.7578 -1.3672 0.0000 0
M  V30 3 C -1.7578 0.9766 0.0000 0
M  V30 4 C -0.3906 -0.7812 0.0000 0
M  V30 5 C -0.3906 0.5859 0.0000 0
M  V30 6 C 0.7812 1.1719 0.0000 0
M  V30 7 C 1.9531 -0.7812 0.0000 0
M  V30 8 N 0.7812 -1.5625 0.0000 0
M  V30 9 N 1.9531 0.3906 0.0000 0
M  V30 10 H -3.5156 -0.1953 0.0000 0
M  V30 11 H -2.1484 2.1484 0.0000 0
M  V30 12 H -1.9531 -2.3438 0.0000 0
M  V30 13 H 0.9766 2.3438 0.0000 0
M  V30 14 H 2.9297 -1.3672 0.0000 0
M  V30 15 H 2.7344 0.9766 0.0000 0
M  V30 END ATOM
M  V30 BEGIN BOND
M  V30 1 3 1 2
M  V30 2 3 1 3
M  V30 3 1 1 10
M  V30 4 1 2 4
M  V30 5 1 2 12
M  V30 6 2 3 5
M  V30 7 1 3 11
M  V30 8 2 4 5
M  V30 9 1 4 8
M  V30 10 3 5 6
M  V30 11 1 6 9
M  V30 12 1 6 13
M  V30 13 1 7 8
M  V30 14 1 7 9
M  V30 15 1 7 14
M  V30 16 1 9 15
M  V30 END BOND
M  V30 END CTAB
M  END
>  <ID>
585
$$$$
Structure_586
Score 	 10.0, smilesprid 	smiles	 smilestrue 	smiles	 similartanimoto 	0	 similardice 	0

   15   16  0  0  0  0            999 V3000
M  V30 BEGIN CTAB
M  V30 COUNTS 15 16 0 0 0
M  V30 BEGIN ATOM
M  V30 1 C -2.5391 -0.1953 0.0000 0
M  V30 2 C -1.7578 -1.3672 0.0000 0
M  V30 3 C -1.7578 0.9766 0.0000 0
M  V30 4 C -0.3906 -0.7812 0.0000 0
M  V30 5 C -0.3906 0.5859 0.0000 0
M  V30 6 C 0.7812 1.1719 0.0000 0
M  V30 7 C 1.9531 -0.7812 0.0000 0
M  V30 8 N 0.7812 -1.5625 0.0000 0
M  V30 9 N 1.9531 0.3906 0.0000 0
M  V30 10 H -3.5156 -0.1953 0.0000 0
M  V30 11 H -2.1484 2.1484 0.0000 0
M  V30 12 H -1.9531 -2.3438 0.0000 0
M  V30 13 H 0.9766 2.3438 0.0000 0
M  V30 14 H 2.9297 -1.3672 0.0000 0
M  V30 15 H 2.7344 0.9766 0.0000 0
M  V30 END ATOM
M  V30 BEGIN BOND
M  V30 1 1 1 2
M  V30 2 1 1 3
M  V30 3 1 1 10
M  V30 4 1 2 4
M  V30 5 1 2 12
M  V30 6 3 3 5
M  V30 7 1 3 11
M  V30 8 2 4 5
M  V30 9 1 4 8
M  V30 10 3 5 6
M  V30 11 1 6 9
M  V30 12 1 6 13
M  V30 13 1 7 8
M  V30 14 1 7 9
M  V30 15 1 7 14
M  V30 16 1 9 15
M  V30 END BOND
M  V30 END CTAB
M  END
>  <ID>
586
$$$$
Structure_587
Score 	 8.0, smilesprid 	smiles	 smilestrue 	smiles	 similartanimoto 	0	 similardice 	0

   15   16  0  0  0  0            999 V3000
M  V30 BEGIN CTAB
M  V30 COUNTS 15 16 0 0 0
M  V30 BEGIN ATOM
M  V30 1 C -2.5391 -0.1953 0.0000 0
M  V30 2 C -1.7578 -1.3672 0.0000 0
M  V30 3 C -1.7578 0.9766 0.0000 0
M  V30 4 C -0.3906 -0.7812 0.0000 0
M  V30 5 C -0.3906 0.5859 0.0000 0
M  V30 6 C 0.7812 1.1719 0.0000 0
M  V30 7 C 1.9531 -0.7812 0.0000 0
M  V30 8 N 0.7812 -1.5625 0.0000 0
M  V30 9 N 1.9531 0.3906 0.0000 0
M  V30 10 H -3.5156 -0.1953 0.0000 0
M  V30 11 H -2.1484 2.1484 0.0000 0
M  V30 12 H -1.9531 -2.3438 0.0000 0
M  V30 13 H 0.9766 2.3438 0.0000 0
M  V30 14 H 2.9297 -1.3672 0.0000 0
M  V30 15 H 2.7344 0.9766 0.0000 0
M  V30 END ATOM
M  V30 BEGIN BOND
M  V30 1 2 1 2
M  V30 2 1 1 3
M  V30 3 1 1 10
M  V30 4 1 2 4
M  V30 5 1 2 12
M  V30 6 3 3 5
M  V30 7 1 3 11
M  V30 8 2 4 5
M  V30 9 1 4 8
M  V30 10 3 5 6
M  V30 11 1 6 9
M  V30 12 1 6 13
M  V30 13 1 7 8
M  V30 14 1 7 9
M  V30 15 1 7 14
M  V30 16 1 9 15
M  V30 END BOND
M  V30 END CTAB
M  END
>  <ID>
587
$$$$
Structure_588
Score 	 10.0, smilesprid 	smiles	 smilestrue 	smiles	 similartanimoto 	0	 similardice 	0

   15   16  0  0  0  0            999 V3000
M  V30 BEGIN CTAB
M  V30 COUNTS 15 16 0 0 0
M  V30 BEGIN ATOM
M  V30 1 C -2.5391 -0.1953 0.0000 0
M  V30 2 C -1.7578 -1.3672 0.0000 0
M  V30 3 C -1.7578 0.9766 0.0000 0
M  V30 4 C -0.3906 -0.7812 0.0000 0
M  V30 5 C -0.3906 0.5859 0.0000 0
M  V30 6 C 0.7812 1.1719 0.0000 0
M  V30 7 C 1.9531 -0.7812 0.0000 0
M  V30 8 N 0.7812 -1.5625 0.0000 0
M  V30 9 N 1.9531 0.3906 0.0000 0
M  V30 10 H -3.5156 -0.1953 0.0000 0
M  V30 11 H -2.1484 2.1484 0.0000 0
M  V30 12 H -1.9531 -2.3438 0.0000 0
M  V30 13 H 0.9766 2.3438 0.0000 0
M  V30 14 H 2.9297 -1.3672 0.0000 0
M  V30 15 H 2.7344 0.9766 0.0000 0
M  V30 END ATOM
M  V30 BEGIN BOND
M  V30 1 3 1 2
M  V30 2 1 1 3
M  V30 3 1 1 10
M  V30 4 1 2 4
M  V30 5 1 2 12
M  V30 6 3 3 5
M  V30 7 1 3 11
M  V30 8 2 4 5
M  V30 9 1 4 8
M  V30 10 3 5 6
M  V30 11 1 6 9
M  V30 12 1 6 13
M  V30 13 1 7 8
M  V30 14 1 7 9
M  V30 15 1 7 14
M  V30 16 1 9 15
M  V30 END BOND
M  V30 END CTAB
M  END
>  <ID>
588
$$$$
Structure_589
Score 	 10.0, smilesprid 	smiles	 smilestrue 	smiles	 similartanimoto 	0	 similardice 	0

   15   16  0  0  0  0            999 V3000
M  V30 BEGIN CTAB
M  V30 COUNTS 15 16 0 0 0
M  V30 BEGIN ATOM
M  V30 1 C -2.5391 -0.1953 0.0000 0
M  V30 2 C -1.7578 -1.3672 0.0000 0
M  V30 3 C -1.7578 0.9766 0.0000 0
M  V30 4 C -0.3906 -0.7812 0.0000 0
M  V30 5 C -0.3906 0.5859 0.0000 0
M  V30 6 C 0.7812 1.1719 0.0000 0
M  V30 7 C 1.9531 -0.7812 0.0000 0
M  V30 8 N 0.7812 -1.5625 0.0000 0
M  V30 9 N 1.9531 0.3906 0.0000 0
M  V30 10 H -3.5156 -0.1953 0.0000 0
M  V30 11 H -2.1484 2.1484 0.0000 0
M  V30 12 H -1.9531 -2.3438 0.0000 0
M  V30 13 H 0.9766 2.3438 0.0000 0
M  V30 14 H 2.9297 -1.3672 0.0000 0
M  V30 15 H 2.7344 0.9766 0.0000 0
M  V30 END ATOM
M  V30 BEGIN BOND
M  V30 1 1 1 2
M  V30 2 2 1 3
M  V30 3 1 1 10
M  V30 4 1 2 4
M  V30 5 1 2 12
M  V30 6 3 3 5
M  V30 7 1 3 11
M  V30 8 2 4 5
M  V30 9 1 4 8
M  V30 10 3 5 6
M  V30 11 1 6 9
M  V30 12 1 6 13
M  V30 13 1 7 8
M  V30 14 1 7 9
M  V30 15 1 7 14
M  V30 16 1 9 15
M  V30 END BOND
M  V30 END CTAB
M  END
>  <ID>
589
$$$$
Structure_590
Score 	 10.0, smilesprid 	smiles	 smilestrue 	smiles	 similartanimoto 	0	 similardice 	0

   15   16  0  0  0  0            999 V3000
M  V30 BEGIN CTAB
M  V30 COUNTS 15 16 0 0 0
M  V30 BEGIN ATOM
M  V30 1 C -2.5391 -0.1953 0.0000 0
M  V30 2 C -1.7578 -1.3672 0.0000 0
M  V30 3 C -1.7578 0.9766 0.0000 0
M  V30 4 C -0.3906 -0.7812 0.0000 0
M  V30 5 C -0.3906 0.5859 0.0000 0
M  V30 6 C 0.7812 1.1719 0.0000 0
M  V30 7 C 1.9531 -0.7812 0.0000 0
M  V30 8 N 0.7812 -1.5625 0.0000 0
M  V30 9 N 1.9531 0.3906 0.0000 0
M  V30 10 H -3.5156 -0.1953 0.0000 0
M  V30 11 H -2.1484 2.1484 0.0000 0
M  V30 12 H -1.9531 -2.3438 0.0000 0
M  V30 13 H 0.9766 2.3438 0.0000 0
M  V30 14 H 2.9297 -1.3672 0.0000 0
M  V30 15 H 2.7344 0.9766 0.0000 0
M  V30 END ATOM
M  V30 BEGIN BOND
M  V30 1 2 1 2
M  V30 2 2 1 3
M  V30 3 1 1 10
M  V30 4 1 2 4
M  V30 5 1 2 12
M  V30 6 3 3 5
M  V30 7 1 3 11
M  V30 8 2 4 5
M  V30 9 1 4 8
M  V30 10 3 5 6
M  V30 11 1 6 9
M  V30 12 1 6 13
M  V30 13 1 7 8
M  V30 14 1 7 9
M  V30 15 1 7 14
M  V30 16 1 9 15
M  V30 END BOND
M  V30 END CTAB
M  END
>  <ID>
590
$$$$
Structure_591
Score 	 12.0, smilesprid 	smiles	 smilestrue 	smiles	 similartanimoto 	0	 similardice 	0

   15   16  0  0  0  0            999 V3000
M  V30 BEGIN CTAB
M  V30 COUNTS 15 16 0 0 0
M  V30 BEGIN ATOM
M  V30 1 C -2.5391 -0.1953 0.0000 0
M  V30 2 C -1.7578 -1.3672 0.0000 0
M  V30 3 C -1.7578 0.9766 0.0000 0
M  V30 4 C -0.3906 -0.7812 0.0000 0
M  V30 5 C -0.3906 0.5859 0.0000 0
M  V30 6 C 0.7812 1.1719 0.0000 0
M  V30 7 C 1.9531 -0.7812 0.0000 0
M  V30 8 N 0.7812 -1.5625 0.0000 0
M  V30 9 N 1.9531 0.3906 0.0000 0
M  V30 10 H -3.5156 -0.1953 0.0000 0
M  V30 11 H -2.1484 2.1484 0.0000 0
M  V30 12 H -1.9531 -2.3438 0.0000 0
M  V30 13 H 0.9766 2.3438 0.0000 0
M  V30 14 H 2.9297 -1.3672 0.0000 0
M  V30 15 H 2.7344 0.9766 0.0000 0
M  V30 END ATOM
M  V30 BEGIN BOND
M  V30 1 3 1 2
M  V30 2 2 1 3
M  V30 3 1 1 10
M  V30 4 1 2 4
M  V30 5 1 2 12
M  V30 6 3 3 5
M  V30 7 1 3 11
M  V30 8 2 4 5
M  V30 9 1 4 8
M  V30 10 3 5 6
M  V30 11 1 6 9
M  V30 12 1 6 13
M  V30 13 1 7 8
M  V30 14 1 7 9
M  V30 15 1 7 14
M  V30 16 1 9 15
M  V30 END BOND
M  V30 END CTAB
M  END
>  <ID>
591
$$$$
Structure_592
Score 	 12.0, smilesprid 	smiles	 smilestrue 	smiles	 similartanimoto 	0	 similardice 	0

   15   16  0  0  0  0            999 V3000
M  V30 BEGIN CTAB
M  V30 COUNTS 15 16 0 0 0
M  V30 BEGIN ATOM
M  V30 1 C -2.5391 -0.1953 0.0000 0
M  V30 2 C -1.7578 -1.3672 0.0000 0
M  V30 3 C -1.7578 0.9766 0.0000 0
M  V30 4 C -0.3906 -0.7812 0.0000 0
M  V30 5 C -0.3906 0.5859 0.0000 0
M  V30 6 C 0.7812 1.1719 0.0000 0
M  V30 7 C 1.9531 -0.7812 0.0000 0
M  V30 8 N 0.7812 -1.5625 0.0000 0
M  V30 9 N 1.9531 0.3906 0.0000 0
M  V30 10 H -3.5156 -0.1953 0.0000 0
M  V30 11 H -2.1484 2.1484 0.0000 0
M  V30 12 H -1.9531 -2.3438 0.0000 0
M  V30 13 H 0.9766 2.3438 0.0000 0
M  V30 14 H 2.9297 -1.3672 0.0000 0
M  V30 15 H 2.7344 0.9766 0.0000 0
M  V30 END ATOM
M  V30 BEGIN BOND
M  V30 1 1 1 2
M  V30 2 3 1 3
M  V30 3 1 1 10
M  V30 4 1 2 4
M  V30 5 1 2 12
M  V30 6 3 3 5
M  V30 7 1 3 11
M  V30 8 2 4 5
M  V30 9 1 4 8
M  V30 10 3 5 6
M  V30 11 1 6 9
M  V30 12 1 6 13
M  V30 13 1 7 8
M  V30 14 1 7 9
M  V30 15 1 7 14
M  V30 16 1 9 15
M  V30 END BOND
M  V30 END CTAB
M  END
>  <ID>
592
$$$$
Structure_593
Score 	 12.0, smilesprid 	smiles	 smilestrue 	smiles	 similartanimoto 	0	 similardice 	0

   15   16  0  0  0  0            999 V3000
M  V30 BEGIN CTAB
M  V30 COUNTS 15 16 0 0 0
M  V30 BEGIN ATOM
M  V30 1 C -2.5391 -0.1953 0.0000 0
M  V30 2 C -1.7578 -1.3672 0.0000 0
M  V30 3 C -1.7578 0.9766 0.0000 0
M  V30 4 C -0.3906 -0.7812 0.0000 0
M  V30 5 C -0.3906 0.5859 0.0000 0
M  V30 6 C 0.7812 1.1719 0.0000 0
M  V30 7 C 1.9531 -0.7812 0.0000 0
M  V30 8 N 0.7812 -1.5625 0.0000 0
M  V30 9 N 1.9531 0.3906 0.0000 0
M  V30 10 H -3.5156 -0.1953 0.0000 0
M  V30 11 H -2.1484 2.1484 0.0000 0
M  V30 12 H -1.9531 -2.3438 0.0000 0
M  V30 13 H 0.9766 2.3438 0.0000 0
M  V30 14 H 2.9297 -1.3672 0.0000 0
M  V30 15 H 2.7344 0.9766 0.0000 0
M  V30 END ATOM
M  V30 BEGIN BOND
M  V30 1 2 1 2
M  V30 2 3 1 3
M  V30 3 1 1 10
M  V30 4 1 2 4
M  V30 5 1 2 12
M  V30 6 3 3 5
M  V30 7 1 3 11
M  V30 8 2 4 5
M  V30 9 1 4 8
M  V30 10 3 5 6
M  V30 11 1 6 9
M  V30 12 1 6 13
M  V30 13 1 7 8
M  V30 14 1 7 9
M  V30 15 1 7 14
M  V30 16 1 9 15
M  V30 END BOND
M  V30 END CTAB
M  END
>  <ID>
593
$$$$
Structure_594
Score 	 14.0, smilesprid 	smiles	 smilestrue 	smiles	 similartanimoto 	0	 similardice 	0

   15   16  0  0  0  0            999 V3000
M  V30 BEGIN CTAB
M  V30 COUNTS 15 16 0 0 0
M  V30 BEGIN ATOM
M  V30 1 C -2.5391 -0.1953 0.0000 0
M  V30 2 C -1.7578 -1.3672 0.0000 0
M  V30 3 C -1.7578 0.9766 0.0000 0
M  V30 4 C -0.3906 -0.7812 0.0000 0
M  V30 5 C -0.3906 0.5859 0.0000 0
M  V30 6 C 0.7812 1.1719 0.0000 0
M  V30 7 C 1.9531 -0.7812 0.0000 0
M  V30 8 N 0.7812 -1.5625 0.0000 0
M  V30 9 N 1.9531 0.3906 0.0000 0
M  V30 10 H -3.5156 -0.1953 0.0000 0
M  V30 11 H -2.1484 2.1484 0.0000 0
M  V30 12 H -1.9531 -2.3438 0.0000 0
M  V30 13 H 0.9766 2.3438 0.0000 0
M  V30 14 H 2.9297 -1.3672 0.0000 0
M  V30 15 H 2.7344 0.9766 0.0000 0
M  V30 END ATOM
M  V30 BEGIN BOND
M  V30 1 3 1 2
M  V30 2 3 1 3
M  V30 3 1 1 10
M  V30 4 1 2 4
M  V30 5 1 2 12
M  V30 6 3 3 5
M  V30 7 1 3 11
M  V30 8 2 4 5
M  V30 9 1 4 8
M  V30 10 3 5 6
M  V30 11 1 6 9
M  V30 12 1 6 13
M  V30 13 1 7 8
M  V30 14 1 7 9
M  V30 15 1 7 14
M  V30 16 1 9 15
M  V30 END BOND
M  V30 END CTAB
M  END
>  <ID>
594
$$$$
Structure_595
Score 	 8.0, smilesprid 	smiles	 smilestrue 	smiles	 similartanimoto 	0	 similardice 	0

   15   16  0  0  0  0            999 V3000
M  V30 BEGIN CTAB
M  V30 COUNTS 15 16 0 0 0
M  V30 BEGIN ATOM
M  V30 1 C -2.5391 -0.1953 0.0000 0
M  V30 2 C -1.7578 -1.3672 0.0000 0
M  V30 3 C -1.7578 0.9766 0.0000 0
M  V30 4 C -0.3906 -0.7812 0.0000 0
M  V30 5 C -0.3906 0.5859 0.0000 0
M  V30 6 C 0.7812 1.1719 0.0000 0
M  V30 7 C 1.9531 -0.7812 0.0000 0
M  V30 8 N 0.7812 -1.5625 0.0000 0
M  V30 9 N 1.9531 0.3906 0.0000 0
M  V30 10 H -3.5156 -0.1953 0.0000 0
M  V30 11 H -2.1484 2.1484 0.0000 0
M  V30 12 H -1.9531 -2.3438 0.0000 0
M  V30 13 H 0.9766 2.3438 0.0000 0
M  V30 14 H 2.9297 -1.3672 0.0000 0
M  V30 15 H 2.7344 0.9766 0.0000 0
M  V30 END ATOM
M  V30 BEGIN BOND
M  V30 1 1 1 2
M  V30 2 1 1 3
M  V30 3 1 1 10
M  V30 4 2 2 4
M  V30 5 1 2 12
M  V30 6 1 3 5
M  V30 7 1 3 11
M  V30 8 2 4 5
M  V30 9 1 4 8
M  V30 10 3 5 6
M  V30 11 1 6 9
M  V30 12 1 6 13
M  V30 13 1 7 8
M  V30 14 1 7 9
M  V30 15 1 7 14
M  V30 16 1 9 15
M  V30 END BOND
M  V30 END CTAB
M  END
>  <ID>
595
$$$$
Structure_596
Score 	 8.0, smilesprid 	smiles	 smilestrue 	smiles	 similartanimoto 	0	 similardice 	0

   15   16  0  0  0  0            999 V3000
M  V30 BEGIN CTAB
M  V30 COUNTS 15 16 0 0 0
M  V30 BEGIN ATOM
M  V30 1 C -2.5391 -0.1953 0.0000 0
M  V30 2 C -1.7578 -1.3672 0.0000 0
M  V30 3 C -1.7578 0.9766 0.0000 0
M  V30 4 C -0.3906 -0.7812 0.0000 0
M  V30 5 C -0.3906 0.5859 0.0000 0
M  V30 6 C 0.7812 1.1719 0.0000 0
M  V30 7 C 1.9531 -0.7812 0.0000 0
M  V30 8 N 0.7812 -1.5625 0.0000 0
M  V30 9 N 1.9531 0.3906 0.0000 0
M  V30 10 H -3.5156 -0.1953 0.0000 0
M  V30 11 H -2.1484 2.1484 0.0000 0
M  V30 12 H -1.9531 -2.3438 0.0000 0
M  V30 13 H 0.9766 2.3438 0.0000 0
M  V30 14 H 2.9297 -1.3672 0.0000 0
M  V30 15 H 2.7344 0.9766 0.0000 0
M  V30 END ATOM
M  V30 BEGIN BOND
M  V30 1 2 1 2
M  V30 2 1 1 3
M  V30 3 1 1 10
M  V30 4 2 2 4
M  V30 5 1 2 12
M  V30 6 1 3 5
M  V30 7 1 3 11
M  V30 8 2 4 5
M  V30 9 1 4 8
M  V30 10 3 5 6
M  V30 11 1 6 9
M  V30 12 1 6 13
M  V30 13 1 7 8
M  V30 14 1 7 9
M  V30 15 1 7 14
M  V30 16 1 9 15
M  V30 END BOND
M  V30 END CTAB
M  END
>  <ID>
596
$$$$
Structure_597
Score 	 10.0, smilesprid 	smiles	 smilestrue 	smiles	 similartanimoto 	0	 similardice 	0

   15   16  0  0  0  0            999 V3000
M  V30 BEGIN CTAB
M  V30 COUNTS 15 16 0 0 0
M  V30 BEGIN ATOM
M  V30 1 C -2.5391 -0.1953 0.0000 0
M  V30 2 C -1.7578 -1.3672 0.0000 0
M  V30 3 C -1.7578 0.9766 0.0000 0
M  V30 4 C -0.3906 -0.7812 0.0000 0
M  V30 5 C -0.3906 0.5859 0.0000 0
M  V30 6 C 0.7812 1.1719 0.0000 0
M  V30 7 C 1.9531 -0.7812 0.0000 0
M  V30 8 N 0.7812 -1.5625 0.0000 0
M  V30 9 N 1.9531 0.3906 0.0000 0
M  V30 10 H -3.5156 -0.1953 0.0000 0
M  V30 11 H -2.1484 2.1484 0.0000 0
M  V30 12 H -1.9531 -2.3438 0.0000 0
M  V30 13 H 0.9766 2.3438 0.0000 0
M  V30 14 H 2.9297 -1.3672 0.0000 0
M  V30 15 H 2.7344 0.9766 0.0000 0
M  V30 END ATOM
M  V30 BEGIN BOND
M  V30 1 3 1 2
M  V30 2 1 1 3
M  V30 3 1 1 10
M  V30 4 2 2 4
M  V30 5 1 2 12
M  V30 6 1 3 5
M  V30 7 1 3 11
M  V30 8 2 4 5
M  V30 9 1 4 8
M  V30 10 3 5 6
M  V30 11 1 6 9
M  V30 12 1 6 13
M  V30 13 1 7 8
M  V30 14 1 7 9
M  V30 15 1 7 14
M  V30 16 1 9 15
M  V30 END BOND
M  V30 END CTAB
M  END
>  <ID>
597
$$$$
Structure_598
Score 	 6.0, smilesprid 	smiles	 smilestrue 	smiles	 similartanimoto 	0	 similardice 	0

   15   16  0  0  0  0            999 V3000
M  V30 BEGIN CTAB
M  V30 COUNTS 15 16 0 0 0
M  V30 BEGIN ATOM
M  V30 1 C -2.5391 -0.1953 0.0000 0
M  V30 2 C -1.7578 -1.3672 0.0000 0
M  V30 3 C -1.7578 0.9766 0.0000 0
M  V30 4 C -0.3906 -0.7812 0.0000 0
M  V30 5 C -0.3906 0.5859 0.0000 0
M  V30 6 C 0.7812 1.1719 0.0000 0
M  V30 7 C 1.9531 -0.7812 0.0000 0
M  V30 8 N 0.7812 -1.5625 0.0000 0
M  V30 9 N 1.9531 0.3906 0.0000 0
M  V30 10 H -3.5156 -0.1953 0.0000 0
M  V30 11 H -2.1484 2.1484 0.0000 0
M  V30 12 H -1.9531 -2.3438 0.0000 0
M  V30 13 H 0.9766 2.3438 0.0000 0
M  V30 14 H 2.9297 -1.3672 0.0000 0
M  V30 15 H 2.7344 0.9766 0.0000 0
M  V30 END ATOM
M  V30 BEGIN BOND
M  V30 1 1 1 2
M  V30 2 2 1 3
M  V30 3 1 1 10
M  V30 4 2 2 4
M  V30 5 1 2 12
M  V30 6 1 3 5
M  V30 7 1 3 11
M  V30 8 2 4 5
M  V30 9 1 4 8
M  V30 10 3 5 6
M  V30 11 1 6 9
M  V30 12 1 6 13
M  V30 13 1 7 8
M  V30 14 1 7 9
M  V30 15 1 7 14
M  V30 16 1 9 15
M  V30 END BOND
M  V30 END CTAB
M  END
>  <ID>
598
$$$$
Structure_599
Score 	 8.0, smilesprid 	smiles	 smilestrue 	smiles	 similartanimoto 	0	 similardice 	0

   15   16  0  0  0  0            999 V3000
M  V30 BEGIN CTAB
M  V30 COUNTS 15 16 0 0 0
M  V30 BEGIN ATOM
M  V30 1 C -2.5391 -0.1953 0.0000 0
M  V30 2 C -1.7578 -1.3672 0.0000 0
M  V30 3 C -1.7578 0.9766 0.0000 0
M  V30 4 C -0.3906 -0.7812 0.0000 0
M  V30 5 C -0.3906 0.5859 0.0000 0
M  V30 6 C 0.7812 1.1719 0.0000 0
M  V30 7 C 1.9531 -0.7812 0.0000 0
M  V30 8 N 0.7812 -1.5625 0.0000 0
M  V30 9 N 1.9531 0.3906 0.0000 0
M  V30 10 H -3.5156 -0.1953 0.0000 0
M  V30 11 H -2.1484 2.1484 0.0000 0
M  V30 12 H -1.9531 -2.3438 0.0000 0
M  V30 13 H 0.9766 2.3438 0.0000 0
M  V30 14 H 2.9297 -1.3672 0.0000 0
M  V30 15 H 2.7344 0.9766 0.0000 0
M  V30 END ATOM
M  V30 BEGIN BOND
M  V30 1 2 1 2
M  V30 2 2 1 3
M  V30 3 1 1 10
M  V30 4 2 2 4
M  V30 5 1 2 12
M  V30 6 1 3 5
M  V30 7 1 3 11
M  V30 8 2 4 5
M  V30 9 1 4 8
M  V30 10 3 5 6
M  V30 11 1 6 9
M  V30 12 1 6 13
M  V30 13 1 7 8
M  V30 14 1 7 9
M  V30 15 1 7 14
M  V30 16 1 9 15
M  V30 END BOND
M  V30 END CTAB
M  END
>  <ID>
599
$$$$
Structure_600
Score 	 10.0, smilesprid 	smiles	 smilestrue 	smiles	 similartanimoto 	0	 similardice 	0

   15   16  0  0  0  0            999 V3000
M  V30 BEGIN CTAB
M  V30 COUNTS 15 16 0 0 0
M  V30 BEGIN ATOM
M  V30 1 C -2.5391 -0.1953 0.0000 0
M  V30 2 C -1.7578 -1.3672 0.0000 0
M  V30 3 C -1.7578 0.9766 0.0000 0
M  V30 4 C -0.3906 -0.7812 0.0000 0
M  V30 5 C -0.3906 0.5859 0.0000 0
M  V30 6 C 0.7812 1.1719 0.0000 0
M  V30 7 C 1.9531 -0.7812 0.0000 0
M  V30 8 N 0.7812 -1.5625 0.0000 0
M  V30 9 N 1.9531 0.3906 0.0000 0
M  V30 10 H -3.5156 -0.1953 0.0000 0
M  V30 11 H -2.1484 2.1484 0.0000 0
M  V30 12 H -1.9531 -2.3438 0.0000 0
M  V30 13 H 0.9766 2.3438 0.0000 0
M  V30 14 H 2.9297 -1.3672 0.0000 0
M  V30 15 H 2.7344 0.9766 0.0000 0
M  V30 END ATOM
M  V30 BEGIN BOND
M  V30 1 3 1 2
M  V30 2 2 1 3
M  V30 3 1 1 10
M  V30 4 2 2 4
M  V30 5 1 2 12
M  V30 6 1 3 5
M  V30 7 1 3 11
M  V30 8 2 4 5
M  V30 9 1 4 8
M  V30 10 3 5 6
M  V30 11 1 6 9
M  V30 12 1 6 13
M  V30 13 1 7 8
M  V30 14 1 7 9
M  V30 15 1 7 14
M  V30 16 1 9 15
M  V30 END BOND
M  V30 END CTAB
M  END
>  <ID>
600
$$$$
Structure_601
Score 	 8.0, smilesprid 	smiles	 smilestrue 	smiles	 similartanimoto 	0	 similardice 	0

   15   16  0  0  0  0            999 V3000
M  V30 BEGIN CTAB
M  V30 COUNTS 15 16 0 0 0
M  V30 BEGIN ATOM
M  V30 1 C -2.5391 -0.1953 0.0000 0
M  V30 2 C -1.7578 -1.3672 0.0000 0
M  V30 3 C -1.7578 0.9766 0.0000 0
M  V30 4 C -0.3906 -0.7812 0.0000 0
M  V30 5 C -0.3906 0.5859 0.0000 0
M  V30 6 C 0.7812 1.1719 0.0000 0
M  V30 7 C 1.9531 -0.7812 0.0000 0
M  V30 8 N 0.7812 -1.5625 0.0000 0
M  V30 9 N 1.9531 0.3906 0.0000 0
M  V30 10 H -3.5156 -0.1953 0.0000 0
M  V30 11 H -2.1484 2.1484 0.0000 0
M  V30 12 H -1.9531 -2.3438 0.0000 0
M  V30 13 H 0.9766 2.3438 0.0000 0
M  V30 14 H 2.9297 -1.3672 0.0000 0
M  V30 15 H 2.7344 0.9766 0.0000 0
M  V30 END ATOM
M  V30 BEGIN BOND
M  V30 1 1 1 2
M  V30 2 3 1 3
M  V30 3 1 1 10
M  V30 4 2 2 4
M  V30 5 1 2 12
M  V30 6 1 3 5
M  V30 7 1 3 11
M  V30 8 2 4 5
M  V30 9 1 4 8
M  V30 10 3 5 6
M  V30 11 1 6 9
M  V30 12 1 6 13
M  V30 13 1 7 8
M  V30 14 1 7 9
M  V30 15 1 7 14
M  V30 16 1 9 15
M  V30 END BOND
M  V30 END CTAB
M  END
>  <ID>
601
$$$$
Structure_602
Score 	 10.0, smilesprid 	smiles	 smilestrue 	smiles	 similartanimoto 	0	 similardice 	0

   15   16  0  0  0  0            999 V3000
M  V30 BEGIN CTAB
M  V30 COUNTS 15 16 0 0 0
M  V30 BEGIN ATOM
M  V30 1 C -2.5391 -0.1953 0.0000 0
M  V30 2 C -1.7578 -1.3672 0.0000 0
M  V30 3 C -1.7578 0.9766 0.0000 0
M  V30 4 C -0.3906 -0.7812 0.0000 0
M  V30 5 C -0.3906 0.5859 0.0000 0
M  V30 6 C 0.7812 1.1719 0.0000 0
M  V30 7 C 1.9531 -0.7812 0.0000 0
M  V30 8 N 0.7812 -1.5625 0.0000 0
M  V30 9 N 1.9531 0.3906 0.0000 0
M  V30 10 H -3.5156 -0.1953 0.0000 0
M  V30 11 H -2.1484 2.1484 0.0000 0
M  V30 12 H -1.9531 -2.3438 0.0000 0
M  V30 13 H 0.9766 2.3438 0.0000 0
M  V30 14 H 2.9297 -1.3672 0.0000 0
M  V30 15 H 2.7344 0.9766 0.0000 0
M  V30 END ATOM
M  V30 BEGIN BOND
M  V30 1 2 1 2
M  V30 2 3 1 3
M  V30 3 1 1 10
M  V30 4 2 2 4
M  V30 5 1 2 12
M  V30 6 1 3 5
M  V30 7 1 3 11
M  V30 8 2 4 5
M  V30 9 1 4 8
M  V30 10 3 5 6
M  V30 11 1 6 9
M  V30 12 1 6 13
M  V30 13 1 7 8
M  V30 14 1 7 9
M  V30 15 1 7 14
M  V30 16 1 9 15
M  V30 END BOND
M  V30 END CTAB
M  END
>  <ID>
602
$$$$
Structure_603
Score 	 12.0, smilesprid 	smiles	 smilestrue 	smiles	 similartanimoto 	0	 similardice 	0

   15   16  0  0  0  0            999 V3000
M  V30 BEGIN CTAB
M  V30 COUNTS 15 16 0 0 0
M  V30 BEGIN ATOM
M  V30 1 C -2.5391 -0.1953 0.0000 0
M  V30 2 C -1.7578 -1.3672 0.0000 0
M  V30 3 C -1.7578 0.9766 0.0000 0
M  V30 4 C -0.3906 -0.7812 0.0000 0
M  V30 5 C -0.3906 0.5859 0.0000 0
M  V30 6 C 0.7812 1.1719 0.0000 0
M  V30 7 C 1.9531 -0.7812 0.0000 0
M  V30 8 N 0.7812 -1.5625 0.0000 0
M  V30 9 N 1.9531 0.3906 0.0000 0
M  V30 10 H -3.5156 -0.1953 0.0000 0
M  V30 11 H -2.1484 2.1484 0.0000 0
M  V30 12 H -1.9531 -2.3438 0.0000 0
M  V30 13 H 0.9766 2.3438 0.0000 0
M  V30 14 H 2.9297 -1.3672 0.0000 0
M  V30 15 H 2.7344 0.9766 0.0000 0
M  V30 END ATOM
M  V30 BEGIN BOND
M  V30 1 3 1 2
M  V30 2 3 1 3
M  V30 3 1 1 10
M  V30 4 2 2 4
M  V30 5 1 2 12
M  V30 6 1 3 5
M  V30 7 1 3 11
M  V30 8 2 4 5
M  V30 9 1 4 8
M  V30 10 3 5 6
M  V30 11 1 6 9
M  V30 12 1 6 13
M  V30 13 1 7 8
M  V30 14 1 7 9
M  V30 15 1 7 14
M  V30 16 1 9 15
M  V30 END BOND
M  V30 END CTAB
M  END
>  <ID>
603
$$$$
Structure_604
Score 	 8.0, smilesprid 	smiles	 smilestrue 	smiles	 similartanimoto 	0	 similardice 	0

   15   16  0  0  0  0            999 V3000
M  V30 BEGIN CTAB
M  V30 COUNTS 15 16 0 0 0
M  V30 BEGIN ATOM
M  V30 1 C -2.5391 -0.1953 0.0000 0
M  V30 2 C -1.7578 -1.3672 0.0000 0
M  V30 3 C -1.7578 0.9766 0.0000 0
M  V30 4 C -0.3906 -0.7812 0.0000 0
M  V30 5 C -0.3906 0.5859 0.0000 0
M  V30 6 C 0.7812 1.1719 0.0000 0
M  V30 7 C 1.9531 -0.7812 0.0000 0
M  V30 8 N 0.7812 -1.5625 0.0000 0
M  V30 9 N 1.9531 0.3906 0.0000 0
M  V30 10 H -3.5156 -0.1953 0.0000 0
M  V30 11 H -2.1484 2.1484 0.0000 0
M  V30 12 H -1.9531 -2.3438 0.0000 0
M  V30 13 H 0.9766 2.3438 0.0000 0
M  V30 14 H 2.9297 -1.3672 0.0000 0
M  V30 15 H 2.7344 0.9766 0.0000 0
M  V30 END ATOM
M  V30 BEGIN BOND
M  V30 1 1 1 2
M  V30 2 1 1 3
M  V30 3 1 1 10
M  V30 4 2 2 4
M  V30 5 1 2 12
M  V30 6 2 3 5
M  V30 7 1 3 11
M  V30 8 2 4 5
M  V30 9 1 4 8
M  V30 10 3 5 6
M  V30 11 1 6 9
M  V30 12 1 6 13
M  V30 13 1 7 8
M  V30 14 1 7 9
M  V30 15 1 7 14
M  V30 16 1 9 15
M  V30 END BOND
M  V30 END CTAB
M  END
>  <ID>
604
$$$$
Structure_605
Score 	 8.0, smilesprid 	smiles	 smilestrue 	smiles	 similartanimoto 	0	 similardice 	0

   15   16  0  0  0  0            999 V3000
M  V30 BEGIN CTAB
M  V30 COUNTS 15 16 0 0 0
M  V30 BEGIN ATOM
M  V30 1 C -2.5391 -0.1953 0.0000 0
M  V30 2 C -1.7578 -1.3672 0.0000 0
M  V30 3 C -1.7578 0.9766 0.0000 0
M  V30 4 C -0.3906 -0.7812 0.0000 0
M  V30 5 C -0.3906 0.5859 0.0000 0
M  V30 6 C 0.7812 1.1719 0.0000 0
M  V30 7 C 1.9531 -0.7812 0.0000 0
M  V30 8 N 0.7812 -1.5625 0.0000 0
M  V30 9 N 1.9531 0.3906 0.0000 0
M  V30 10 H -3.5156 -0.1953 0.0000 0
M  V30 11 H -2.1484 2.1484 0.0000 0
M  V30 12 H -1.9531 -2.3438 0.0000 0
M  V30 13 H 0.9766 2.3438 0.0000 0
M  V30 14 H 2.9297 -1.3672 0.0000 0
M  V30 15 H 2.7344 0.9766 0.0000 0
M  V30 END ATOM
M  V30 BEGIN BOND
M  V30 1 2 1 2
M  V30 2 1 1 3
M  V30 3 1 1 10
M  V30 4 2 2 4
M  V30 5 1 2 12
M  V30 6 2 3 5
M  V30 7 1 3 11
M  V30 8 2 4 5
M  V30 9 1 4 8
M  V30 10 3 5 6
M  V30 11 1 6 9
M  V30 12 1 6 13
M  V30 13 1 7 8
M  V30 14 1 7 9
M  V30 15 1 7 14
M  V30 16 1 9 15
M  V30 END BOND
M  V30 END CTAB
M  END
>  <ID>
605
$$$$
Structure_606
Score 	 10.0, smilesprid 	smiles	 smilestrue 	smiles	 similartanimoto 	0	 similardice 	0

   15   16  0  0  0  0            999 V3000
M  V30 BEGIN CTAB
M  V30 COUNTS 15 16 0 0 0
M  V30 BEGIN ATOM
M  V30 1 C -2.5391 -0.1953 0.0000 0
M  V30 2 C -1.7578 -1.3672 0.0000 0
M  V30 3 C -1.7578 0.9766 0.0000 0
M  V30 4 C -0.3906 -0.7812 0.0000 0
M  V30 5 C -0.3906 0.5859 0.0000 0
M  V30 6 C 0.7812 1.1719 0.0000 0
M  V30 7 C 1.9531 -0.7812 0.0000 0
M  V30 8 N 0.7812 -1.5625 0.0000 0
M  V30 9 N 1.9531 0.3906 0.0000 0
M  V30 10 H -3.5156 -0.1953 0.0000 0
M  V30 11 H -2.1484 2.1484 0.0000 0
M  V30 12 H -1.9531 -2.3438 0.0000 0
M  V30 13 H 0.9766 2.3438 0.0000 0
M  V30 14 H 2.9297 -1.3672 0.0000 0
M  V30 15 H 2.7344 0.9766 0.0000 0
M  V30 END ATOM
M  V30 BEGIN BOND
M  V30 1 3 1 2
M  V30 2 1 1 3
M  V30 3 1 1 10
M  V30 4 2 2 4
M  V30 5 1 2 12
M  V30 6 2 3 5
M  V30 7 1 3 11
M  V30 8 2 4 5
M  V30 9 1 4 8
M  V30 10 3 5 6
M  V30 11 1 6 9
M  V30 12 1 6 13
M  V30 13 1 7 8
M  V30 14 1 7 9
M  V30 15 1 7 14
M  V30 16 1 9 15
M  V30 END BOND
M  V30 END CTAB
M  END
>  <ID>
606
$$$$
Structure_607
Score 	 8.0, smilesprid 	smiles	 smilestrue 	smiles	 similartanimoto 	0	 similardice 	0

   15   16  0  0  0  0            999 V3000
M  V30 BEGIN CTAB
M  V30 COUNTS 15 16 0 0 0
M  V30 BEGIN ATOM
M  V30 1 C -2.5391 -0.1953 0.0000 0
M  V30 2 C -1.7578 -1.3672 0.0000 0
M  V30 3 C -1.7578 0.9766 0.0000 0
M  V30 4 C -0.3906 -0.7812 0.0000 0
M  V30 5 C -0.3906 0.5859 0.0000 0
M  V30 6 C 0.7812 1.1719 0.0000 0
M  V30 7 C 1.9531 -0.7812 0.0000 0
M  V30 8 N 0.7812 -1.5625 0.0000 0
M  V30 9 N 1.9531 0.3906 0.0000 0
M  V30 10 H -3.5156 -0.1953 0.0000 0
M  V30 11 H -2.1484 2.1484 0.0000 0
M  V30 12 H -1.9531 -2.3438 0.0000 0
M  V30 13 H 0.9766 2.3438 0.0000 0
M  V30 14 H 2.9297 -1.3672 0.0000 0
M  V30 15 H 2.7344 0.9766 0.0000 0
M  V30 END ATOM
M  V30 BEGIN BOND
M  V30 1 1 1 2
M  V30 2 2 1 3
M  V30 3 1 1 10
M  V30 4 2 2 4
M  V30 5 1 2 12
M  V30 6 2 3 5
M  V30 7 1 3 11
M  V30 8 2 4 5
M  V30 9 1 4 8
M  V30 10 3 5 6
M  V30 11 1 6 9
M  V30 12 1 6 13
M  V30 13 1 7 8
M  V30 14 1 7 9
M  V30 15 1 7 14
M  V30 16 1 9 15
M  V30 END BOND
M  V30 END CTAB
M  END
>  <ID>
607
$$$$
Structure_608
Score 	 10.0, smilesprid 	smiles	 smilestrue 	smiles	 similartanimoto 	0	 similardice 	0

   15   16  0  0  0  0            999 V3000
M  V30 BEGIN CTAB
M  V30 COUNTS 15 16 0 0 0
M  V30 BEGIN ATOM
M  V30 1 C -2.5391 -0.1953 0.0000 0
M  V30 2 C -1.7578 -1.3672 0.0000 0
M  V30 3 C -1.7578 0.9766 0.0000 0
M  V30 4 C -0.3906 -0.7812 0.0000 0
M  V30 5 C -0.3906 0.5859 0.0000 0
M  V30 6 C 0.7812 1.1719 0.0000 0
M  V30 7 C 1.9531 -0.7812 0.0000 0
M  V30 8 N 0.7812 -1.5625 0.0000 0
M  V30 9 N 1.9531 0.3906 0.0000 0
M  V30 10 H -3.5156 -0.1953 0.0000 0
M  V30 11 H -2.1484 2.1484 0.0000 0
M  V30 12 H -1.9531 -2.3438 0.0000 0
M  V30 13 H 0.9766 2.3438 0.0000 0
M  V30 14 H 2.9297 -1.3672 0.0000 0
M  V30 15 H 2.7344 0.9766 0.0000 0
M  V30 END ATOM
M  V30 BEGIN BOND
M  V30 1 2 1 2
M  V30 2 2 1 3
M  V30 3 1 1 10
M  V30 4 2 2 4
M  V30 5 1 2 12
M  V30 6 2 3 5
M  V30 7 1 3 11
M  V30 8 2 4 5
M  V30 9 1 4 8
M  V30 10 3 5 6
M  V30 11 1 6 9
M  V30 12 1 6 13
M  V30 13 1 7 8
M  V30 14 1 7 9
M  V30 15 1 7 14
M  V30 16 1 9 15
M  V30 END BOND
M  V30 END CTAB
M  END
>  <ID>
608
$$$$
Structure_609
Score 	 12.0, smilesprid 	smiles	 smilestrue 	smiles	 similartanimoto 	0	 similardice 	0

   15   16  0  0  0  0            999 V3000
M  V30 BEGIN CTAB
M  V30 COUNTS 15 16 0 0 0
M  V30 BEGIN ATOM
M  V30 1 C -2.5391 -0.1953 0.0000 0
M  V30 2 C -1.7578 -1.3672 0.0000 0
M  V30 3 C -1.7578 0.9766 0.0000 0
M  V30 4 C -0.3906 -0.7812 0.0000 0
M  V30 5 C -0.3906 0.5859 0.0000 0
M  V30 6 C 0.7812 1.1719 0.0000 0
M  V30 7 C 1.9531 -0.7812 0.0000 0
M  V30 8 N 0.7812 -1.5625 0.0000 0
M  V30 9 N 1.9531 0.3906 0.0000 0
M  V30 10 H -3.5156 -0.1953 0.0000 0
M  V30 11 H -2.1484 2.1484 0.0000 0
M  V30 12 H -1.9531 -2.3438 0.0000 0
M  V30 13 H 0.9766 2.3438 0.0000 0
M  V30 14 H 2.9297 -1.3672 0.0000 0
M  V30 15 H 2.7344 0.9766 0.0000 0
M  V30 END ATOM
M  V30 BEGIN BOND
M  V30 1 3 1 2
M  V30 2 2 1 3
M  V30 3 1 1 10
M  V30 4 2 2 4
M  V30 5 1 2 12
M  V30 6 2 3 5
M  V30 7 1 3 11
M  V30 8 2 4 5
M  V30 9 1 4 8
M  V30 10 3 5 6
M  V30 11 1 6 9
M  V30 12 1 6 13
M  V30 13 1 7 8
M  V30 14 1 7 9
M  V30 15 1 7 14
M  V30 16 1 9 15
M  V30 END BOND
M  V30 END CTAB
M  END
>  <ID>
609
$$$$
Structure_610
Score 	 10.0, smilesprid 	smiles	 smilestrue 	smiles	 similartanimoto 	0	 similardice 	0

   15   16  0  0  0  0            999 V3000
M  V30 BEGIN CTAB
M  V30 COUNTS 15 16 0 0 0
M  V30 BEGIN ATOM
M  V30 1 C -2.5391 -0.1953 0.0000 0
M  V30 2 C -1.7578 -1.3672 0.0000 0
M  V30 3 C -1.7578 0.9766 0.0000 0
M  V30 4 C -0.3906 -0.7812 0.0000 0
M  V30 5 C -0.3906 0.5859 0.0000 0
M  V30 6 C 0.7812 1.1719 0.0000 0
M  V30 7 C 1.9531 -0.7812 0.0000 0
M  V30 8 N 0.7812 -1.5625 0.0000 0
M  V30 9 N 1.9531 0.3906 0.0000 0
M  V30 10 H -3.5156 -0.1953 0.0000 0
M  V30 11 H -2.1484 2.1484 0.0000 0
M  V30 12 H -1.9531 -2.3438 0.0000 0
M  V30 13 H 0.9766 2.3438 0.0000 0
M  V30 14 H 2.9297 -1.3672 0.0000 0
M  V30 15 H 2.7344 0.9766 0.0000 0
M  V30 END ATOM
M  V30 BEGIN BOND
M  V30 1 1 1 2
M  V30 2 3 1 3
M  V30 3 1 1 10
M  V30 4 2 2 4
M  V30 5 1 2 12
M  V30 6 2 3 5
M  V30 7 1 3 11
M  V30 8 2 4 5
M  V30 9 1 4 8
M  V30 10 3 5 6
M  V30 11 1 6 9
M  V30 12 1 6 13
M  V30 13 1 7 8
M  V30 14 1 7 9
M  V30 15 1 7 14
M  V30 16 1 9 15
M  V30 END BOND
M  V30 END CTAB
M  END
>  <ID>
610
$$$$
Structure_611
Score 	 12.0, smilesprid 	smiles	 smilestrue 	smiles	 similartanimoto 	0	 similardice 	0

   15   16  0  0  0  0            999 V3000
M  V30 BEGIN CTAB
M  V30 COUNTS 15 16 0 0 0
M  V30 BEGIN ATOM
M  V30 1 C -2.5391 -0.1953 0.0000 0
M  V30 2 C -1.7578 -1.3672 0.0000 0
M  V30 3 C -1.7578 0.9766 0.0000 0
M  V30 4 C -0.3906 -0.7812 0.0000 0
M  V30 5 C -0.3906 0.5859 0.0000 0
M  V30 6 C 0.7812 1.1719 0.0000 0
M  V30 7 C 1.9531 -0.7812 0.0000 0
M  V30 8 N 0.7812 -1.5625 0.0000 0
M  V30 9 N 1.9531 0.3906 0.0000 0
M  V30 10 H -3.5156 -0.1953 0.0000 0
M  V30 11 H -2.1484 2.1484 0.0000 0
M  V30 12 H -1.9531 -2.3438 0.0000 0
M  V30 13 H 0.9766 2.3438 0.0000 0
M  V30 14 H 2.9297 -1.3672 0.0000 0
M  V30 15 H 2.7344 0.9766 0.0000 0
M  V30 END ATOM
M  V30 BEGIN BOND
M  V30 1 2 1 2
M  V30 2 3 1 3
M  V30 3 1 1 10
M  V30 4 2 2 4
M  V30 5 1 2 12
M  V30 6 2 3 5
M  V30 7 1 3 11
M  V30 8 2 4 5
M  V30 9 1 4 8
M  V30 10 3 5 6
M  V30 11 1 6 9
M  V30 12 1 6 13
M  V30 13 1 7 8
M  V30 14 1 7 9
M  V30 15 1 7 14
M  V30 16 1 9 15
M  V30 END BOND
M  V30 END CTAB
M  END
>  <ID>
611
$$$$
Structure_612
Score 	 14.0, smilesprid 	smiles	 smilestrue 	smiles	 similartanimoto 	0	 similardice 	0

   15   16  0  0  0  0            999 V3000
M  V30 BEGIN CTAB
M  V30 COUNTS 15 16 0 0 0
M  V30 BEGIN ATOM
M  V30 1 C -2.5391 -0.1953 0.0000 0
M  V30 2 C -1.7578 -1.3672 0.0000 0
M  V30 3 C -1.7578 0.9766 0.0000 0
M  V30 4 C -0.3906 -0.7812 0.0000 0
M  V30 5 C -0.3906 0.5859 0.0000 0
M  V30 6 C 0.7812 1.1719 0.0000 0
M  V30 7 C 1.9531 -0.7812 0.0000 0
M  V30 8 N 0.7812 -1.5625 0.0000 0
M  V30 9 N 1.9531 0.3906 0.0000 0
M  V30 10 H -3.5156 -0.1953 0.0000 0
M  V30 11 H -2.1484 2.1484 0.0000 0
M  V30 12 H -1.9531 -2.3438 0.0000 0
M  V30 13 H 0.9766 2.3438 0.0000 0
M  V30 14 H 2.9297 -1.3672 0.0000 0
M  V30 15 H 2.7344 0.9766 0.0000 0
M  V30 END ATOM
M  V30 BEGIN BOND
M  V30 1 3 1 2
M  V30 2 3 1 3
M  V30 3 1 1 10
M  V30 4 2 2 4
M  V30 5 1 2 12
M  V30 6 2 3 5
M  V30 7 1 3 11
M  V30 8 2 4 5
M  V30 9 1 4 8
M  V30 10 3 5 6
M  V30 11 1 6 9
M  V30 12 1 6 13
M  V30 13 1 7 8
M  V30 14 1 7 9
M  V30 15 1 7 14
M  V30 16 1 9 15
M  V30 END BOND
M  V30 END CTAB
M  END
>  <ID>
612
$$$$
Structure_613
Score 	 10.0, smilesprid 	smiles	 smilestrue 	smiles	 similartanimoto 	0	 similardice 	0

   15   16  0  0  0  0            999 V3000
M  V30 BEGIN CTAB
M  V30 COUNTS 15 16 0 0 0
M  V30 BEGIN ATOM
M  V30 1 C -2.5391 -0.1953 0.0000 0
M  V30 2 C -1.7578 -1.3672 0.0000 0
M  V30 3 C -1.7578 0.9766 0.0000 0
M  V30 4 C -0.3906 -0.7812 0.0000 0
M  V30 5 C -0.3906 0.5859 0.0000 0
M  V30 6 C 0.7812 1.1719 0.0000 0
M  V30 7 C 1.9531 -0.7812 0.0000 0
M  V30 8 N 0.7812 -1.5625 0.0000 0
M  V30 9 N 1.9531 0.3906 0.0000 0
M  V30 10 H -3.5156 -0.1953 0.0000 0
M  V30 11 H -2.1484 2.1484 0.0000 0
M  V30 12 H -1.9531 -2.3438 0.0000 0
M  V30 13 H 0.9766 2.3438 0.0000 0
M  V30 14 H 2.9297 -1.3672 0.0000 0
M  V30 15 H 2.7344 0.9766 0.0000 0
M  V30 END ATOM
M  V30 BEGIN BOND
M  V30 1 1 1 2
M  V30 2 1 1 3
M  V30 3 1 1 10
M  V30 4 2 2 4
M  V30 5 1 2 12
M  V30 6 3 3 5
M  V30 7 1 3 11
M  V30 8 2 4 5
M  V30 9 1 4 8
M  V30 10 3 5 6
M  V30 11 1 6 9
M  V30 12 1 6 13
M  V30 13 1 7 8
M  V30 14 1 7 9
M  V30 15 1 7 14
M  V30 16 1 9 15
M  V30 END BOND
M  V30 END CTAB
M  END
>  <ID>
613
$$$$
Structure_614
Score 	 10.0, smilesprid 	smiles	 smilestrue 	smiles	 similartanimoto 	0	 similardice 	0

   15   16  0  0  0  0            999 V3000
M  V30 BEGIN CTAB
M  V30 COUNTS 15 16 0 0 0
M  V30 BEGIN ATOM
M  V30 1 C -2.5391 -0.1953 0.0000 0
M  V30 2 C -1.7578 -1.3672 0.0000 0
M  V30 3 C -1.7578 0.9766 0.0000 0
M  V30 4 C -0.3906 -0.7812 0.0000 0
M  V30 5 C -0.3906 0.5859 0.0000 0
M  V30 6 C 0.7812 1.1719 0.0000 0
M  V30 7 C 1.9531 -0.7812 0.0000 0
M  V30 8 N 0.7812 -1.5625 0.0000 0
M  V30 9 N 1.9531 0.3906 0.0000 0
M  V30 10 H -3.5156 -0.1953 0.0000 0
M  V30 11 H -2.1484 2.1484 0.0000 0
M  V30 12 H -1.9531 -2.3438 0.0000 0
M  V30 13 H 0.9766 2.3438 0.0000 0
M  V30 14 H 2.9297 -1.3672 0.0000 0
M  V30 15 H 2.7344 0.9766 0.0000 0
M  V30 END ATOM
M  V30 BEGIN BOND
M  V30 1 2 1 2
M  V30 2 1 1 3
M  V30 3 1 1 10
M  V30 4 2 2 4
M  V30 5 1 2 12
M  V30 6 3 3 5
M  V30 7 1 3 11
M  V30 8 2 4 5
M  V30 9 1 4 8
M  V30 10 3 5 6
M  V30 11 1 6 9
M  V30 12 1 6 13
M  V30 13 1 7 8
M  V30 14 1 7 9
M  V30 15 1 7 14
M  V30 16 1 9 15
M  V30 END BOND
M  V30 END CTAB
M  END
>  <ID>
614
$$$$
Structure_615
Score 	 12.0, smilesprid 	smiles	 smilestrue 	smiles	 similartanimoto 	0	 similardice 	0

   15   16  0  0  0  0            999 V3000
M  V30 BEGIN CTAB
M  V30 COUNTS 15 16 0 0 0
M  V30 BEGIN ATOM
M  V30 1 C -2.5391 -0.1953 0.0000 0
M  V30 2 C -1.7578 -1.3672 0.0000 0
M  V30 3 C -1.7578 0.9766 0.0000 0
M  V30 4 C -0.3906 -0.7812 0.0000 0
M  V30 5 C -0.3906 0.5859 0.0000 0
M  V30 6 C 0.7812 1.1719 0.0000 0
M  V30 7 C 1.9531 -0.7812 0.0000 0
M  V30 8 N 0.7812 -1.5625 0.0000 0
M  V30 9 N 1.9531 0.3906 0.0000 0
M  V30 10 H -3.5156 -0.1953 0.0000 0
M  V30 11 H -2.1484 2.1484 0.0000 0
M  V30 12 H -1.9531 -2.3438 0.0000 0
M  V30 13 H 0.9766 2.3438 0.0000 0
M  V30 14 H 2.9297 -1.3672 0.0000 0
M  V30 15 H 2.7344 0.9766 0.0000 0
M  V30 END ATOM
M  V30 BEGIN BOND
M  V30 1 3 1 2
M  V30 2 1 1 3
M  V30 3 1 1 10
M  V30 4 2 2 4
M  V30 5 1 2 12
M  V30 6 3 3 5
M  V30 7 1 3 11
M  V30 8 2 4 5
M  V30 9 1 4 8
M  V30 10 3 5 6
M  V30 11 1 6 9
M  V30 12 1 6 13
M  V30 13 1 7 8
M  V30 14 1 7 9
M  V30 15 1 7 14
M  V30 16 1 9 15
M  V30 END BOND
M  V30 END CTAB
M  END
>  <ID>
615
$$$$
Structure_616
Score 	 10.0, smilesprid 	smiles	 smilestrue 	smiles	 similartanimoto 	0	 similardice 	0

   15   16  0  0  0  0            999 V3000
M  V30 BEGIN CTAB
M  V30 COUNTS 15 16 0 0 0
M  V30 BEGIN ATOM
M  V30 1 C -2.5391 -0.1953 0.0000 0
M  V30 2 C -1.7578 -1.3672 0.0000 0
M  V30 3 C -1.7578 0.9766 0.0000 0
M  V30 4 C -0.3906 -0.7812 0.0000 0
M  V30 5 C -0.3906 0.5859 0.0000 0
M  V30 6 C 0.7812 1.1719 0.0000 0
M  V30 7 C 1.9531 -0.7812 0.0000 0
M  V30 8 N 0.7812 -1.5625 0.0000 0
M  V30 9 N 1.9531 0.3906 0.0000 0
M  V30 10 H -3.5156 -0.1953 0.0000 0
M  V30 11 H -2.1484 2.1484 0.0000 0
M  V30 12 H -1.9531 -2.3438 0.0000 0
M  V30 13 H 0.9766 2.3438 0.0000 0
M  V30 14 H 2.9297 -1.3672 0.0000 0
M  V30 15 H 2.7344 0.9766 0.0000 0
M  V30 END ATOM
M  V30 BEGIN BOND
M  V30 1 1 1 2
M  V30 2 2 1 3
M  V30 3 1 1 10
M  V30 4 2 2 4
M  V30 5 1 2 12
M  V30 6 3 3 5
M  V30 7 1 3 11
M  V30 8 2 4 5
M  V30 9 1 4 8
M  V30 10 3 5 6
M  V30 11 1 6 9
M  V30 12 1 6 13
M  V30 13 1 7 8
M  V30 14 1 7 9
M  V30 15 1 7 14
M  V30 16 1 9 15
M  V30 END BOND
M  V30 END CTAB
M  END
>  <ID>
616
$$$$
Structure_617
Score 	 12.0, smilesprid 	smiles	 smilestrue 	smiles	 similartanimoto 	0	 similardice 	0

   15   16  0  0  0  0            999 V3000
M  V30 BEGIN CTAB
M  V30 COUNTS 15 16 0 0 0
M  V30 BEGIN ATOM
M  V30 1 C -2.5391 -0.1953 0.0000 0
M  V30 2 C -1.7578 -1.3672 0.0000 0
M  V30 3 C -1.7578 0.9766 0.0000 0
M  V30 4 C -0.3906 -0.7812 0.0000 0
M  V30 5 C -0.3906 0.5859 0.0000 0
M  V30 6 C 0.7812 1.1719 0.0000 0
M  V30 7 C 1.9531 -0.7812 0.0000 0
M  V30 8 N 0.7812 -1.5625 0.0000 0
M  V30 9 N 1.9531 0.3906 0.0000 0
M  V30 10 H -3.5156 -0.1953 0.0000 0
M  V30 11 H -2.1484 2.1484 0.0000 0
M  V30 12 H -1.9531 -2.3438 0.0000 0
M  V30 13 H 0.9766 2.3438 0.0000 0
M  V30 14 H 2.9297 -1.3672 0.0000 0
M  V30 15 H 2.7344 0.9766 0.0000 0
M  V30 END ATOM
M  V30 BEGIN BOND
M  V30 1 2 1 2
M  V30 2 2 1 3
M  V30 3 1 1 10
M  V30 4 2 2 4
M  V30 5 1 2 12
M  V30 6 3 3 5
M  V30 7 1 3 11
M  V30 8 2 4 5
M  V30 9 1 4 8
M  V30 10 3 5 6
M  V30 11 1 6 9
M  V30 12 1 6 13
M  V30 13 1 7 8
M  V30 14 1 7 9
M  V30 15 1 7 14
M  V30 16 1 9 15
M  V30 END BOND
M  V30 END CTAB
M  END
>  <ID>
617
$$$$
Structure_618
Score 	 14.0, smilesprid 	smiles	 smilestrue 	smiles	 similartanimoto 	0	 similardice 	0

   15   16  0  0  0  0            999 V3000
M  V30 BEGIN CTAB
M  V30 COUNTS 15 16 0 0 0
M  V30 BEGIN ATOM
M  V30 1 C -2.5391 -0.1953 0.0000 0
M  V30 2 C -1.7578 -1.3672 0.0000 0
M  V30 3 C -1.7578 0.9766 0.0000 0
M  V30 4 C -0.3906 -0.7812 0.0000 0
M  V30 5 C -0.3906 0.5859 0.0000 0
M  V30 6 C 0.7812 1.1719 0.0000 0
M  V30 7 C 1.9531 -0.7812 0.0000 0
M  V30 8 N 0.7812 -1.5625 0.0000 0
M  V30 9 N 1.9531 0.3906 0.0000 0
M  V30 10 H -3.5156 -0.1953 0.0000 0
M  V30 11 H -2.1484 2.1484 0.0000 0
M  V30 12 H -1.9531 -2.3438 0.0000 0
M  V30 13 H 0.9766 2.3438 0.0000 0
M  V30 14 H 2.9297 -1.3672 0.0000 0
M  V30 15 H 2.7344 0.9766 0.0000 0
M  V30 END ATOM
M  V30 BEGIN BOND
M  V30 1 3 1 2
M  V30 2 2 1 3
M  V30 3 1 1 10
M  V30 4 2 2 4
M  V30 5 1 2 12
M  V30 6 3 3 5
M  V30 7 1 3 11
M  V30 8 2 4 5
M  V30 9 1 4 8
M  V30 10 3 5 6
M  V30 11 1 6 9
M  V30 12 1 6 13
M  V30 13 1 7 8
M  V30 14 1 7 9
M  V30 15 1 7 14
M  V30 16 1 9 15
M  V30 END BOND
M  V30 END CTAB
M  END
>  <ID>
618
$$$$
Structure_619
Score 	 12.0, smilesprid 	smiles	 smilestrue 	smiles	 similartanimoto 	0	 similardice 	0

   15   16  0  0  0  0            999 V3000
M  V30 BEGIN CTAB
M  V30 COUNTS 15 16 0 0 0
M  V30 BEGIN ATOM
M  V30 1 C -2.5391 -0.1953 0.0000 0
M  V30 2 C -1.7578 -1.3672 0.0000 0
M  V30 3 C -1.7578 0.9766 0.0000 0
M  V30 4 C -0.3906 -0.7812 0.0000 0
M  V30 5 C -0.3906 0.5859 0.0000 0
M  V30 6 C 0.7812 1.1719 0.0000 0
M  V30 7 C 1.9531 -0.7812 0.0000 0
M  V30 8 N 0.7812 -1.5625 0.0000 0
M  V30 9 N 1.9531 0.3906 0.0000 0
M  V30 10 H -3.5156 -0.1953 0.0000 0
M  V30 11 H -2.1484 2.1484 0.0000 0
M  V30 12 H -1.9531 -2.3438 0.0000 0
M  V30 13 H 0.9766 2.3438 0.0000 0
M  V30 14 H 2.9297 -1.3672 0.0000 0
M  V30 15 H 2.7344 0.9766 0.0000 0
M  V30 END ATOM
M  V30 BEGIN BOND
M  V30 1 1 1 2
M  V30 2 3 1 3
M  V30 3 1 1 10
M  V30 4 2 2 4
M  V30 5 1 2 12
M  V30 6 3 3 5
M  V30 7 1 3 11
M  V30 8 2 4 5
M  V30 9 1 4 8
M  V30 10 3 5 6
M  V30 11 1 6 9
M  V30 12 1 6 13
M  V30 13 1 7 8
M  V30 14 1 7 9
M  V30 15 1 7 14
M  V30 16 1 9 15
M  V30 END BOND
M  V30 END CTAB
M  END
>  <ID>
619
$$$$
Structure_620
Score 	 14.0, smilesprid 	smiles	 smilestrue 	smiles	 similartanimoto 	0	 similardice 	0

   15   16  0  0  0  0            999 V3000
M  V30 BEGIN CTAB
M  V30 COUNTS 15 16 0 0 0
M  V30 BEGIN ATOM
M  V30 1 C -2.5391 -0.1953 0.0000 0
M  V30 2 C -1.7578 -1.3672 0.0000 0
M  V30 3 C -1.7578 0.9766 0.0000 0
M  V30 4 C -0.3906 -0.7812 0.0000 0
M  V30 5 C -0.3906 0.5859 0.0000 0
M  V30 6 C 0.7812 1.1719 0.0000 0
M  V30 7 C 1.9531 -0.7812 0.0000 0
M  V30 8 N 0.7812 -1.5625 0.0000 0
M  V30 9 N 1.9531 0.3906 0.0000 0
M  V30 10 H -3.5156 -0.1953 0.0000 0
M  V30 11 H -2.1484 2.1484 0.0000 0
M  V30 12 H -1.9531 -2.3438 0.0000 0
M  V30 13 H 0.9766 2.3438 0.0000 0
M  V30 14 H 2.9297 -1.3672 0.0000 0
M  V30 15 H 2.7344 0.9766 0.0000 0
M  V30 END ATOM
M  V30 BEGIN BOND
M  V30 1 2 1 2
M  V30 2 3 1 3
M  V30 3 1 1 10
M  V30 4 2 2 4
M  V30 5 1 2 12
M  V30 6 3 3 5
M  V30 7 1 3 11
M  V30 8 2 4 5
M  V30 9 1 4 8
M  V30 10 3 5 6
M  V30 11 1 6 9
M  V30 12 1 6 13
M  V30 13 1 7 8
M  V30 14 1 7 9
M  V30 15 1 7 14
M  V30 16 1 9 15
M  V30 END BOND
M  V30 END CTAB
M  END
>  <ID>
620
$$$$
Structure_621
Score 	 16.0, smilesprid 	smiles	 smilestrue 	smiles	 similartanimoto 	0	 similardice 	0

   15   16  0  0  0  0            999 V3000
M  V30 BEGIN CTAB
M  V30 COUNTS 15 16 0 0 0
M  V30 BEGIN ATOM
M  V30 1 C -2.5391 -0.1953 0.0000 0
M  V30 2 C -1.7578 -1.3672 0.0000 0
M  V30 3 C -1.7578 0.9766 0.0000 0
M  V30 4 C -0.3906 -0.7812 0.0000 0
M  V30 5 C -0.3906 0.5859 0.0000 0
M  V30 6 C 0.7812 1.1719 0.0000 0
M  V30 7 C 1.9531 -0.7812 0.0000 0
M  V30 8 N 0.7812 -1.5625 0.0000 0
M  V30 9 N 1.9531 0.3906 0.0000 0
M  V30 10 H -3.5156 -0.1953 0.0000 0
M  V30 11 H -2.1484 2.1484 0.0000 0
M  V30 12 H -1.9531 -2.3438 0.0000 0
M  V30 13 H 0.9766 2.3438 0.0000 0
M  V30 14 H 2.9297 -1.3672 0.0000 0
M  V30 15 H 2.7344 0.9766 0.0000 0
M  V30 END ATOM
M  V30 BEGIN BOND
M  V30 1 3 1 2
M  V30 2 3 1 3
M  V30 3 1 1 10
M  V30 4 2 2 4
M  V30 5 1 2 12
M  V30 6 3 3 5
M  V30 7 1 3 11
M  V30 8 2 4 5
M  V30 9 1 4 8
M  V30 10 3 5 6
M  V30 11 1 6 9
M  V30 12 1 6 13
M  V30 13 1 7 8
M  V30 14 1 7 9
M  V30 15 1 7 14
M  V30 16 1 9 15
M  V30 END BOND
M  V30 END CTAB
M  END
>  <ID>
621
$$$$
Structure_622
Score 	 10.0, smilesprid 	smiles	 smilestrue 	smiles	 similartanimoto 	0	 similardice 	0

   15   16  0  0  0  0            999 V3000
M  V30 BEGIN CTAB
M  V30 COUNTS 15 16 0 0 0
M  V30 BEGIN ATOM
M  V30 1 C -2.5391 -0.1953 0.0000 0
M  V30 2 C -1.7578 -1.3672 0.0000 0
M  V30 3 C -1.7578 0.9766 0.0000 0
M  V30 4 C -0.3906 -0.7812 0.0000 0
M  V30 5 C -0.3906 0.5859 0.0000 0
M  V30 6 C 0.7812 1.1719 0.0000 0
M  V30 7 C 1.9531 -0.7812 0.0000 0
M  V30 8 N 0.7812 -1.5625 0.0000 0
M  V30 9 N 1.9531 0.3906 0.0000 0
M  V30 10 H -3.5156 -0.1953 0.0000 0
M  V30 11 H -2.1484 2.1484 0.0000 0
M  V30 12 H -1.9531 -2.3438 0.0000 0
M  V30 13 H 0.9766 2.3438 0.0000 0
M  V30 14 H 2.9297 -1.3672 0.0000 0
M  V30 15 H 2.7344 0.9766 0.0000 0
M  V30 END ATOM
M  V30 BEGIN BOND
M  V30 1 1 1 2
M  V30 2 1 1 3
M  V30 3 1 1 10
M  V30 4 3 2 4
M  V30 5 1 2 12
M  V30 6 1 3 5
M  V30 7 1 3 11
M  V30 8 2 4 5
M  V30 9 1 4 8
M  V30 10 3 5 6
M  V30 11 1 6 9
M  V30 12 1 6 13
M  V30 13 1 7 8
M  V30 14 1 7 9
M  V30 15 1 7 14
M  V30 16 1 9 15
M  V30 END BOND
M  V30 END CTAB
M  END
>  <ID>
622
$$$$
Structure_623
Score 	 10.0, smilesprid 	smiles	 smilestrue 	smiles	 similartanimoto 	0	 similardice 	0

   15   16  0  0  0  0            999 V3000
M  V30 BEGIN CTAB
M  V30 COUNTS 15 16 0 0 0
M  V30 BEGIN ATOM
M  V30 1 C -2.5391 -0.1953 0.0000 0
M  V30 2 C -1.7578 -1.3672 0.0000 0
M  V30 3 C -1.7578 0.9766 0.0000 0
M  V30 4 C -0.3906 -0.7812 0.0000 0
M  V30 5 C -0.3906 0.5859 0.0000 0
M  V30 6 C 0.7812 1.1719 0.0000 0
M  V30 7 C 1.9531 -0.7812 0.0000 0
M  V30 8 N 0.7812 -1.5625 0.0000 0
M  V30 9 N 1.9531 0.3906 0.0000 0
M  V30 10 H -3.5156 -0.1953 0.0000 0
M  V30 11 H -2.1484 2.1484 0.0000 0
M  V30 12 H -1.9531 -2.3438 0.0000 0
M  V30 13 H 0.9766 2.3438 0.0000 0
M  V30 14 H 2.9297 -1.3672 0.0000 0
M  V30 15 H 2.7344 0.9766 0.0000 0
M  V30 END ATOM
M  V30 BEGIN BOND
M  V30 1 2 1 2
M  V30 2 1 1 3
M  V30 3 1 1 10
M  V30 4 3 2 4
M  V30 5 1 2 12
M  V30 6 1 3 5
M  V30 7 1 3 11
M  V30 8 2 4 5
M  V30 9 1 4 8
M  V30 10 3 5 6
M  V30 11 1 6 9
M  V30 12 1 6 13
M  V30 13 1 7 8
M  V30 14 1 7 9
M  V30 15 1 7 14
M  V30 16 1 9 15
M  V30 END BOND
M  V30 END CTAB
M  END
>  <ID>
623
$$$$
Structure_624
Score 	 12.0, smilesprid 	smiles	 smilestrue 	smiles	 similartanimoto 	0	 similardice 	0

   15   16  0  0  0  0            999 V3000
M  V30 BEGIN CTAB
M  V30 COUNTS 15 16 0 0 0
M  V30 BEGIN ATOM
M  V30 1 C -2.5391 -0.1953 0.0000 0
M  V30 2 C -1.7578 -1.3672 0.0000 0
M  V30 3 C -1.7578 0.9766 0.0000 0
M  V30 4 C -0.3906 -0.7812 0.0000 0
M  V30 5 C -0.3906 0.5859 0.0000 0
M  V30 6 C 0.7812 1.1719 0.0000 0
M  V30 7 C 1.9531 -0.7812 0.0000 0
M  V30 8 N 0.7812 -1.5625 0.0000 0
M  V30 9 N 1.9531 0.3906 0.0000 0
M  V30 10 H -3.5156 -0.1953 0.0000 0
M  V30 11 H -2.1484 2.1484 0.0000 0
M  V30 12 H -1.9531 -2.3438 0.0000 0
M  V30 13 H 0.9766 2.3438 0.0000 0
M  V30 14 H 2.9297 -1.3672 0.0000 0
M  V30 15 H 2.7344 0.9766 0.0000 0
M  V30 END ATOM
M  V30 BEGIN BOND
M  V30 1 3 1 2
M  V30 2 1 1 3
M  V30 3 1 1 10
M  V30 4 3 2 4
M  V30 5 1 2 12
M  V30 6 1 3 5
M  V30 7 1 3 11
M  V30 8 2 4 5
M  V30 9 1 4 8
M  V30 10 3 5 6
M  V30 11 1 6 9
M  V30 12 1 6 13
M  V30 13 1 7 8
M  V30 14 1 7 9
M  V30 15 1 7 14
M  V30 16 1 9 15
M  V30 END BOND
M  V30 END CTAB
M  END
>  <ID>
624
$$$$
Structure_625
Score 	 8.0, smilesprid 	smiles	 smilestrue 	smiles	 similartanimoto 	0	 similardice 	0

   15   16  0  0  0  0            999 V3000
M  V30 BEGIN CTAB
M  V30 COUNTS 15 16 0 0 0
M  V30 BEGIN ATOM
M  V30 1 C -2.5391 -0.1953 0.0000 0
M  V30 2 C -1.7578 -1.3672 0.0000 0
M  V30 3 C -1.7578 0.9766 0.0000 0
M  V30 4 C -0.3906 -0.7812 0.0000 0
M  V30 5 C -0.3906 0.5859 0.0000 0
M  V30 6 C 0.7812 1.1719 0.0000 0
M  V30 7 C 1.9531 -0.7812 0.0000 0
M  V30 8 N 0.7812 -1.5625 0.0000 0
M  V30 9 N 1.9531 0.3906 0.0000 0
M  V30 10 H -3.5156 -0.1953 0.0000 0
M  V30 11 H -2.1484 2.1484 0.0000 0
M  V30 12 H -1.9531 -2.3438 0.0000 0
M  V30 13 H 0.9766 2.3438 0.0000 0
M  V30 14 H 2.9297 -1.3672 0.0000 0
M  V30 15 H 2.7344 0.9766 0.0000 0
M  V30 END ATOM
M  V30 BEGIN BOND
M  V30 1 1 1 2
M  V30 2 2 1 3
M  V30 3 1 1 10
M  V30 4 3 2 4
M  V30 5 1 2 12
M  V30 6 1 3 5
M  V30 7 1 3 11
M  V30 8 2 4 5
M  V30 9 1 4 8
M  V30 10 3 5 6
M  V30 11 1 6 9
M  V30 12 1 6 13
M  V30 13 1 7 8
M  V30 14 1 7 9
M  V30 15 1 7 14
M  V30 16 1 9 15
M  V30 END BOND
M  V30 END CTAB
M  END
>  <ID>
625
$$$$
Structure_626
Score 	 10.0, smilesprid 	smiles	 smilestrue 	smiles	 similartanimoto 	0	 similardice 	0

   15   16  0  0  0  0            999 V3000
M  V30 BEGIN CTAB
M  V30 COUNTS 15 16 0 0 0
M  V30 BEGIN ATOM
M  V30 1 C -2.5391 -0.1953 0.0000 0
M  V30 2 C -1.7578 -1.3672 0.0000 0
M  V30 3 C -1.7578 0.9766 0.0000 0
M  V30 4 C -0.3906 -0.7812 0.0000 0
M  V30 5 C -0.3906 0.5859 0.0000 0
M  V30 6 C 0.7812 1.1719 0.0000 0
M  V30 7 C 1.9531 -0.7812 0.0000 0
M  V30 8 N 0.7812 -1.5625 0.0000 0
M  V30 9 N 1.9531 0.3906 0.0000 0
M  V30 10 H -3.5156 -0.1953 0.0000 0
M  V30 11 H -2.1484 2.1484 0.0000 0
M  V30 12 H -1.9531 -2.3438 0.0000 0
M  V30 13 H 0.9766 2.3438 0.0000 0
M  V30 14 H 2.9297 -1.3672 0.0000 0
M  V30 15 H 2.7344 0.9766 0.0000 0
M  V30 END ATOM
M  V30 BEGIN BOND
M  V30 1 2 1 2
M  V30 2 2 1 3
M  V30 3 1 1 10
M  V30 4 3 2 4
M  V30 5 1 2 12
M  V30 6 1 3 5
M  V30 7 1 3 11
M  V30 8 2 4 5
M  V30 9 1 4 8
M  V30 10 3 5 6
M  V30 11 1 6 9
M  V30 12 1 6 13
M  V30 13 1 7 8
M  V30 14 1 7 9
M  V30 15 1 7 14
M  V30 16 1 9 15
M  V30 END BOND
M  V30 END CTAB
M  END
>  <ID>
626
$$$$
Structure_627
Score 	 12.0, smilesprid 	smiles	 smilestrue 	smiles	 similartanimoto 	0	 similardice 	0

   15   16  0  0  0  0            999 V3000
M  V30 BEGIN CTAB
M  V30 COUNTS 15 16 0 0 0
M  V30 BEGIN ATOM
M  V30 1 C -2.5391 -0.1953 0.0000 0
M  V30 2 C -1.7578 -1.3672 0.0000 0
M  V30 3 C -1.7578 0.9766 0.0000 0
M  V30 4 C -0.3906 -0.7812 0.0000 0
M  V30 5 C -0.3906 0.5859 0.0000 0
M  V30 6 C 0.7812 1.1719 0.0000 0
M  V30 7 C 1.9531 -0.7812 0.0000 0
M  V30 8 N 0.7812 -1.5625 0.0000 0
M  V30 9 N 1.9531 0.3906 0.0000 0
M  V30 10 H -3.5156 -0.1953 0.0000 0
M  V30 11 H -2.1484 2.1484 0.0000 0
M  V30 12 H -1.9531 -2.3438 0.0000 0
M  V30 13 H 0.9766 2.3438 0.0000 0
M  V30 14 H 2.9297 -1.3672 0.0000 0
M  V30 15 H 2.7344 0.9766 0.0000 0
M  V30 END ATOM
M  V30 BEGIN BOND
M  V30 1 3 1 2
M  V30 2 2 1 3
M  V30 3 1 1 10
M  V30 4 3 2 4
M  V30 5 1 2 12
M  V30 6 1 3 5
M  V30 7 1 3 11
M  V30 8 2 4 5
M  V30 9 1 4 8
M  V30 10 3 5 6
M  V30 11 1 6 9
M  V30 12 1 6 13
M  V30 13 1 7 8
M  V30 14 1 7 9
M  V30 15 1 7 14
M  V30 16 1 9 15
M  V30 END BOND
M  V30 END CTAB
M  END
>  <ID>
627
$$$$
Structure_628
Score 	 10.0, smilesprid 	smiles	 smilestrue 	smiles	 similartanimoto 	0	 similardice 	0

   15   16  0  0  0  0            999 V3000
M  V30 BEGIN CTAB
M  V30 COUNTS 15 16 0 0 0
M  V30 BEGIN ATOM
M  V30 1 C -2.5391 -0.1953 0.0000 0
M  V30 2 C -1.7578 -1.3672 0.0000 0
M  V30 3 C -1.7578 0.9766 0.0000 0
M  V30 4 C -0.3906 -0.7812 0.0000 0
M  V30 5 C -0.3906 0.5859 0.0000 0
M  V30 6 C 0.7812 1.1719 0.0000 0
M  V30 7 C 1.9531 -0.7812 0.0000 0
M  V30 8 N 0.7812 -1.5625 0.0000 0
M  V30 9 N 1.9531 0.3906 0.0000 0
M  V30 10 H -3.5156 -0.1953 0.0000 0
M  V30 11 H -2.1484 2.1484 0.0000 0
M  V30 12 H -1.9531 -2.3438 0.0000 0
M  V30 13 H 0.9766 2.3438 0.0000 0
M  V30 14 H 2.9297 -1.3672 0.0000 0
M  V30 15 H 2.7344 0.9766 0.0000 0
M  V30 END ATOM
M  V30 BEGIN BOND
M  V30 1 1 1 2
M  V30 2 3 1 3
M  V30 3 1 1 10
M  V30 4 3 2 4
M  V30 5 1 2 12
M  V30 6 1 3 5
M  V30 7 1 3 11
M  V30 8 2 4 5
M  V30 9 1 4 8
M  V30 10 3 5 6
M  V30 11 1 6 9
M  V30 12 1 6 13
M  V30 13 1 7 8
M  V30 14 1 7 9
M  V30 15 1 7 14
M  V30 16 1 9 15
M  V30 END BOND
M  V30 END CTAB
M  END
>  <ID>
628
$$$$
Structure_629
Score 	 12.0, smilesprid 	smiles	 smilestrue 	smiles	 similartanimoto 	0	 similardice 	0

   15   16  0  0  0  0            999 V3000
M  V30 BEGIN CTAB
M  V30 COUNTS 15 16 0 0 0
M  V30 BEGIN ATOM
M  V30 1 C -2.5391 -0.1953 0.0000 0
M  V30 2 C -1.7578 -1.3672 0.0000 0
M  V30 3 C -1.7578 0.9766 0.0000 0
M  V30 4 C -0.3906 -0.7812 0.0000 0
M  V30 5 C -0.3906 0.5859 0.0000 0
M  V30 6 C 0.7812 1.1719 0.0000 0
M  V30 7 C 1.9531 -0.7812 0.0000 0
M  V30 8 N 0.7812 -1.5625 0.0000 0
M  V30 9 N 1.9531 0.3906 0.0000 0
M  V30 10 H -3.5156 -0.1953 0.0000 0
M  V30 11 H -2.1484 2.1484 0.0000 0
M  V30 12 H -1.9531 -2.3438 0.0000 0
M  V30 13 H 0.9766 2.3438 0.0000 0
M  V30 14 H 2.9297 -1.3672 0.0000 0
M  V30 15 H 2.7344 0.9766 0.0000 0
M  V30 END ATOM
M  V30 BEGIN BOND
M  V30 1 2 1 2
M  V30 2 3 1 3
M  V30 3 1 1 10
M  V30 4 3 2 4
M  V30 5 1 2 12
M  V30 6 1 3 5
M  V30 7 1 3 11
M  V30 8 2 4 5
M  V30 9 1 4 8
M  V30 10 3 5 6
M  V30 11 1 6 9
M  V30 12 1 6 13
M  V30 13 1 7 8
M  V30 14 1 7 9
M  V30 15 1 7 14
M  V30 16 1 9 15
M  V30 END BOND
M  V30 END CTAB
M  END
>  <ID>
629
$$$$
Structure_630
Score 	 14.0, smilesprid 	smiles	 smilestrue 	smiles	 similartanimoto 	0	 similardice 	0

   15   16  0  0  0  0            999 V3000
M  V30 BEGIN CTAB
M  V30 COUNTS 15 16 0 0 0
M  V30 BEGIN ATOM
M  V30 1 C -2.5391 -0.1953 0.0000 0
M  V30 2 C -1.7578 -1.3672 0.0000 0
M  V30 3 C -1.7578 0.9766 0.0000 0
M  V30 4 C -0.3906 -0.7812 0.0000 0
M  V30 5 C -0.3906 0.5859 0.0000 0
M  V30 6 C 0.7812 1.1719 0.0000 0
M  V30 7 C 1.9531 -0.7812 0.0000 0
M  V30 8 N 0.7812 -1.5625 0.0000 0
M  V30 9 N 1.9531 0.3906 0.0000 0
M  V30 10 H -3.5156 -0.1953 0.0000 0
M  V30 11 H -2.1484 2.1484 0.0000 0
M  V30 12 H -1.9531 -2.3438 0.0000 0
M  V30 13 H 0.9766 2.3438 0.0000 0
M  V30 14 H 2.9297 -1.3672 0.0000 0
M  V30 15 H 2.7344 0.9766 0.0000 0
M  V30 END ATOM
M  V30 BEGIN BOND
M  V30 1 3 1 2
M  V30 2 3 1 3
M  V30 3 1 1 10
M  V30 4 3 2 4
M  V30 5 1 2 12
M  V30 6 1 3 5
M  V30 7 1 3 11
M  V30 8 2 4 5
M  V30 9 1 4 8
M  V30 10 3 5 6
M  V30 11 1 6 9
M  V30 12 1 6 13
M  V30 13 1 7 8
M  V30 14 1 7 9
M  V30 15 1 7 14
M  V30 16 1 9 15
M  V30 END BOND
M  V30 END CTAB
M  END
>  <ID>
630
$$$$
Structure_631
Score 	 10.0, smilesprid 	smiles	 smilestrue 	smiles	 similartanimoto 	0	 similardice 	0

   15   16  0  0  0  0            999 V3000
M  V30 BEGIN CTAB
M  V30 COUNTS 15 16 0 0 0
M  V30 BEGIN ATOM
M  V30 1 C -2.5391 -0.1953 0.0000 0
M  V30 2 C -1.7578 -1.3672 0.0000 0
M  V30 3 C -1.7578 0.9766 0.0000 0
M  V30 4 C -0.3906 -0.7812 0.0000 0
M  V30 5 C -0.3906 0.5859 0.0000 0
M  V30 6 C 0.7812 1.1719 0.0000 0
M  V30 7 C 1.9531 -0.7812 0.0000 0
M  V30 8 N 0.7812 -1.5625 0.0000 0
M  V30 9 N 1.9531 0.3906 0.0000 0
M  V30 10 H -3.5156 -0.1953 0.0000 0
M  V30 11 H -2.1484 2.1484 0.0000 0
M  V30 12 H -1.9531 -2.3438 0.0000 0
M  V30 13 H 0.9766 2.3438 0.0000 0
M  V30 14 H 2.9297 -1.3672 0.0000 0
M  V30 15 H 2.7344 0.9766 0.0000 0
M  V30 END ATOM
M  V30 BEGIN BOND
M  V30 1 1 1 2
M  V30 2 1 1 3
M  V30 3 1 1 10
M  V30 4 3 2 4
M  V30 5 1 2 12
M  V30 6 2 3 5
M  V30 7 1 3 11
M  V30 8 2 4 5
M  V30 9 1 4 8
M  V30 10 3 5 6
M  V30 11 1 6 9
M  V30 12 1 6 13
M  V30 13 1 7 8
M  V30 14 1 7 9
M  V30 15 1 7 14
M  V30 16 1 9 15
M  V30 END BOND
M  V30 END CTAB
M  END
>  <ID>
631
$$$$
Structure_632
Score 	 10.0, smilesprid 	smiles	 smilestrue 	smiles	 similartanimoto 	0	 similardice 	0

   15   16  0  0  0  0            999 V3000
M  V30 BEGIN CTAB
M  V30 COUNTS 15 16 0 0 0
M  V30 BEGIN ATOM
M  V30 1 C -2.5391 -0.1953 0.0000 0
M  V30 2 C -1.7578 -1.3672 0.0000 0
M  V30 3 C -1.7578 0.9766 0.0000 0
M  V30 4 C -0.3906 -0.7812 0.0000 0
M  V30 5 C -0.3906 0.5859 0.0000 0
M  V30 6 C 0.7812 1.1719 0.0000 0
M  V30 7 C 1.9531 -0.7812 0.0000 0
M  V30 8 N 0.7812 -1.5625 0.0000 0
M  V30 9 N 1.9531 0.3906 0.0000 0
M  V30 10 H -3.5156 -0.1953 0.0000 0
M  V30 11 H -2.1484 2.1484 0.0000 0
M  V30 12 H -1.9531 -2.3438 0.0000 0
M  V30 13 H 0.9766 2.3438 0.0000 0
M  V30 14 H 2.9297 -1.3672 0.0000 0
M  V30 15 H 2.7344 0.9766 0.0000 0
M  V30 END ATOM
M  V30 BEGIN BOND
M  V30 1 2 1 2
M  V30 2 1 1 3
M  V30 3 1 1 10
M  V30 4 3 2 4
M  V30 5 1 2 12
M  V30 6 2 3 5
M  V30 7 1 3 11
M  V30 8 2 4 5
M  V30 9 1 4 8
M  V30 10 3 5 6
M  V30 11 1 6 9
M  V30 12 1 6 13
M  V30 13 1 7 8
M  V30 14 1 7 9
M  V30 15 1 7 14
M  V30 16 1 9 15
M  V30 END BOND
M  V30 END CTAB
M  END
>  <ID>
632
$$$$
Structure_633
Score 	 12.0, smilesprid 	smiles	 smilestrue 	smiles	 similartanimoto 	0	 similardice 	0

   15   16  0  0  0  0            999 V3000
M  V30 BEGIN CTAB
M  V30 COUNTS 15 16 0 0 0
M  V30 BEGIN ATOM
M  V30 1 C -2.5391 -0.1953 0.0000 0
M  V30 2 C -1.7578 -1.3672 0.0000 0
M  V30 3 C -1.7578 0.9766 0.0000 0
M  V30 4 C -0.3906 -0.7812 0.0000 0
M  V30 5 C -0.3906 0.5859 0.0000 0
M  V30 6 C 0.7812 1.1719 0.0000 0
M  V30 7 C 1.9531 -0.7812 0.0000 0
M  V30 8 N 0.7812 -1.5625 0.0000 0
M  V30 9 N 1.9531 0.3906 0.0000 0
M  V30 10 H -3.5156 -0.1953 0.0000 0
M  V30 11 H -2.1484 2.1484 0.0000 0
M  V30 12 H -1.9531 -2.3438 0.0000 0
M  V30 13 H 0.9766 2.3438 0.0000 0
M  V30 14 H 2.9297 -1.3672 0.0000 0
M  V30 15 H 2.7344 0.9766 0.0000 0
M  V30 END ATOM
M  V30 BEGIN BOND
M  V30 1 3 1 2
M  V30 2 1 1 3
M  V30 3 1 1 10
M  V30 4 3 2 4
M  V30 5 1 2 12
M  V30 6 2 3 5
M  V30 7 1 3 11
M  V30 8 2 4 5
M  V30 9 1 4 8
M  V30 10 3 5 6
M  V30 11 1 6 9
M  V30 12 1 6 13
M  V30 13 1 7 8
M  V30 14 1 7 9
M  V30 15 1 7 14
M  V30 16 1 9 15
M  V30 END BOND
M  V30 END CTAB
M  END
>  <ID>
633
$$$$
Structure_634
Score 	 10.0, smilesprid 	smiles	 smilestrue 	smiles	 similartanimoto 	0	 similardice 	0

   15   16  0  0  0  0            999 V3000
M  V30 BEGIN CTAB
M  V30 COUNTS 15 16 0 0 0
M  V30 BEGIN ATOM
M  V30 1 C -2.5391 -0.1953 0.0000 0
M  V30 2 C -1.7578 -1.3672 0.0000 0
M  V30 3 C -1.7578 0.9766 0.0000 0
M  V30 4 C -0.3906 -0.7812 0.0000 0
M  V30 5 C -0.3906 0.5859 0.0000 0
M  V30 6 C 0.7812 1.1719 0.0000 0
M  V30 7 C 1.9531 -0.7812 0.0000 0
M  V30 8 N 0.7812 -1.5625 0.0000 0
M  V30 9 N 1.9531 0.3906 0.0000 0
M  V30 10 H -3.5156 -0.1953 0.0000 0
M  V30 11 H -2.1484 2.1484 0.0000 0
M  V30 12 H -1.9531 -2.3438 0.0000 0
M  V30 13 H 0.9766 2.3438 0.0000 0
M  V30 14 H 2.9297 -1.3672 0.0000 0
M  V30 15 H 2.7344 0.9766 0.0000 0
M  V30 END ATOM
M  V30 BEGIN BOND
M  V30 1 1 1 2
M  V30 2 2 1 3
M  V30 3 1 1 10
M  V30 4 3 2 4
M  V30 5 1 2 12
M  V30 6 2 3 5
M  V30 7 1 3 11
M  V30 8 2 4 5
M  V30 9 1 4 8
M  V30 10 3 5 6
M  V30 11 1 6 9
M  V30 12 1 6 13
M  V30 13 1 7 8
M  V30 14 1 7 9
M  V30 15 1 7 14
M  V30 16 1 9 15
M  V30 END BOND
M  V30 END CTAB
M  END
>  <ID>
634
$$$$
Structure_635
Score 	 12.0, smilesprid 	smiles	 smilestrue 	smiles	 similartanimoto 	0	 similardice 	0

   15   16  0  0  0  0            999 V3000
M  V30 BEGIN CTAB
M  V30 COUNTS 15 16 0 0 0
M  V30 BEGIN ATOM
M  V30 1 C -2.5391 -0.1953 0.0000 0
M  V30 2 C -1.7578 -1.3672 0.0000 0
M  V30 3 C -1.7578 0.9766 0.0000 0
M  V30 4 C -0.3906 -0.7812 0.0000 0
M  V30 5 C -0.3906 0.5859 0.0000 0
M  V30 6 C 0.7812 1.1719 0.0000 0
M  V30 7 C 1.9531 -0.7812 0.0000 0
M  V30 8 N 0.7812 -1.5625 0.0000 0
M  V30 9 N 1.9531 0.3906 0.0000 0
M  V30 10 H -3.5156 -0.1953 0.0000 0
M  V30 11 H -2.1484 2.1484 0.0000 0
M  V30 12 H -1.9531 -2.3438 0.0000 0
M  V30 13 H 0.9766 2.3438 0.0000 0
M  V30 14 H 2.9297 -1.3672 0.0000 0
M  V30 15 H 2.7344 0.9766 0.0000 0
M  V30 END ATOM
M  V30 BEGIN BOND
M  V30 1 2 1 2
M  V30 2 2 1 3
M  V30 3 1 1 10
M  V30 4 3 2 4
M  V30 5 1 2 12
M  V30 6 2 3 5
M  V30 7 1 3 11
M  V30 8 2 4 5
M  V30 9 1 4 8
M  V30 10 3 5 6
M  V30 11 1 6 9
M  V30 12 1 6 13
M  V30 13 1 7 8
M  V30 14 1 7 9
M  V30 15 1 7 14
M  V30 16 1 9 15
M  V30 END BOND
M  V30 END CTAB
M  END
>  <ID>
635
$$$$
Structure_636
Score 	 14.0, smilesprid 	smiles	 smilestrue 	smiles	 similartanimoto 	0	 similardice 	0

   15   16  0  0  0  0            999 V3000
M  V30 BEGIN CTAB
M  V30 COUNTS 15 16 0 0 0
M  V30 BEGIN ATOM
M  V30 1 C -2.5391 -0.1953 0.0000 0
M  V30 2 C -1.7578 -1.3672 0.0000 0
M  V30 3 C -1.7578 0.9766 0.0000 0
M  V30 4 C -0.3906 -0.7812 0.0000 0
M  V30 5 C -0.3906 0.5859 0.0000 0
M  V30 6 C 0.7812 1.1719 0.0000 0
M  V30 7 C 1.9531 -0.7812 0.0000 0
M  V30 8 N 0.7812 -1.5625 0.0000 0
M  V30 9 N 1.9531 0.3906 0.0000 0
M  V30 10 H -3.5156 -0.1953 0.0000 0
M  V30 11 H -2.1484 2.1484 0.0000 0
M  V30 12 H -1.9531 -2.3438 0.0000 0
M  V30 13 H 0.9766 2.3438 0.0000 0
M  V30 14 H 2.9297 -1.3672 0.0000 0
M  V30 15 H 2.7344 0.9766 0.0000 0
M  V30 END ATOM
M  V30 BEGIN BOND
M  V30 1 3 1 2
M  V30 2 2 1 3
M  V30 3 1 1 10
M  V30 4 3 2 4
M  V30 5 1 2 12
M  V30 6 2 3 5
M  V30 7 1 3 11
M  V30 8 2 4 5
M  V30 9 1 4 8
M  V30 10 3 5 6
M  V30 11 1 6 9
M  V30 12 1 6 13
M  V30 13 1 7 8
M  V30 14 1 7 9
M  V30 15 1 7 14
M  V30 16 1 9 15
M  V30 END BOND
M  V30 END CTAB
M  END
>  <ID>
636
$$$$
Structure_637
Score 	 12.0, smilesprid 	smiles	 smilestrue 	smiles	 similartanimoto 	0	 similardice 	0

   15   16  0  0  0  0            999 V3000
M  V30 BEGIN CTAB
M  V30 COUNTS 15 16 0 0 0
M  V30 BEGIN ATOM
M  V30 1 C -2.5391 -0.1953 0.0000 0
M  V30 2 C -1.7578 -1.3672 0.0000 0
M  V30 3 C -1.7578 0.9766 0.0000 0
M  V30 4 C -0.3906 -0.7812 0.0000 0
M  V30 5 C -0.3906 0.5859 0.0000 0
M  V30 6 C 0.7812 1.1719 0.0000 0
M  V30 7 C 1.9531 -0.7812 0.0000 0
M  V30 8 N 0.7812 -1.5625 0.0000 0
M  V30 9 N 1.9531 0.3906 0.0000 0
M  V30 10 H -3.5156 -0.1953 0.0000 0
M  V30 11 H -2.1484 2.1484 0.0000 0
M  V30 12 H -1.9531 -2.3438 0.0000 0
M  V30 13 H 0.9766 2.3438 0.0000 0
M  V30 14 H 2.9297 -1.3672 0.0000 0
M  V30 15 H 2.7344 0.9766 0.0000 0
M  V30 END ATOM
M  V30 BEGIN BOND
M  V30 1 1 1 2
M  V30 2 3 1 3
M  V30 3 1 1 10
M  V30 4 3 2 4
M  V30 5 1 2 12
M  V30 6 2 3 5
M  V30 7 1 3 11
M  V30 8 2 4 5
M  V30 9 1 4 8
M  V30 10 3 5 6
M  V30 11 1 6 9
M  V30 12 1 6 13
M  V30 13 1 7 8
M  V30 14 1 7 9
M  V30 15 1 7 14
M  V30 16 1 9 15
M  V30 END BOND
M  V30 END CTAB
M  END
>  <ID>
637
$$$$
Structure_638
Score 	 14.0, smilesprid 	smiles	 smilestrue 	smiles	 similartanimoto 	0	 similardice 	0

   15   16  0  0  0  0            999 V3000
M  V30 BEGIN CTAB
M  V30 COUNTS 15 16 0 0 0
M  V30 BEGIN ATOM
M  V30 1 C -2.5391 -0.1953 0.0000 0
M  V30 2 C -1.7578 -1.3672 0.0000 0
M  V30 3 C -1.7578 0.9766 0.0000 0
M  V30 4 C -0.3906 -0.7812 0.0000 0
M  V30 5 C -0.3906 0.5859 0.0000 0
M  V30 6 C 0.7812 1.1719 0.0000 0
M  V30 7 C 1.9531 -0.7812 0.0000 0
M  V30 8 N 0.7812 -1.5625 0.0000 0
M  V30 9 N 1.9531 0.3906 0.0000 0
M  V30 10 H -3.5156 -0.1953 0.0000 0
M  V30 11 H -2.1484 2.1484 0.0000 0
M  V30 12 H -1.9531 -2.3438 0.0000 0
M  V30 13 H 0.9766 2.3438 0.0000 0
M  V30 14 H 2.9297 -1.3672 0.0000 0
M  V30 15 H 2.7344 0.9766 0.0000 0
M  V30 END ATOM
M  V30 BEGIN BOND
M  V30 1 2 1 2
M  V30 2 3 1 3
M  V30 3 1 1 10
M  V30 4 3 2 4
M  V30 5 1 2 12
M  V30 6 2 3 5
M  V30 7 1 3 11
M  V30 8 2 4 5
M  V30 9 1 4 8
M  V30 10 3 5 6
M  V30 11 1 6 9
M  V30 12 1 6 13
M  V30 13 1 7 8
M  V30 14 1 7 9
M  V30 15 1 7 14
M  V30 16 1 9 15
M  V30 END BOND
M  V30 END CTAB
M  END
>  <ID>
638
$$$$
Structure_639
Score 	 16.0, smilesprid 	smiles	 smilestrue 	smiles	 similartanimoto 	0	 similardice 	0

   15   16  0  0  0  0            999 V3000
M  V30 BEGIN CTAB
M  V30 COUNTS 15 16 0 0 0
M  V30 BEGIN ATOM
M  V30 1 C -2.5391 -0.1953 0.0000 0
M  V30 2 C -1.7578 -1.3672 0.0000 0
M  V30 3 C -1.7578 0.9766 0.0000 0
M  V30 4 C -0.3906 -0.7812 0.0000 0
M  V30 5 C -0.3906 0.5859 0.0000 0
M  V30 6 C 0.7812 1.1719 0.0000 0
M  V30 7 C 1.9531 -0.7812 0.0000 0
M  V30 8 N 0.7812 -1.5625 0.0000 0
M  V30 9 N 1.9531 0.3906 0.0000 0
M  V30 10 H -3.5156 -0.1953 0.0000 0
M  V30 11 H -2.1484 2.1484 0.0000 0
M  V30 12 H -1.9531 -2.3438 0.0000 0
M  V30 13 H 0.9766 2.3438 0.0000 0
M  V30 14 H 2.9297 -1.3672 0.0000 0
M  V30 15 H 2.7344 0.9766 0.0000 0
M  V30 END ATOM
M  V30 BEGIN BOND
M  V30 1 3 1 2
M  V30 2 3 1 3
M  V30 3 1 1 10
M  V30 4 3 2 4
M  V30 5 1 2 12
M  V30 6 2 3 5
M  V30 7 1 3 11
M  V30 8 2 4 5
M  V30 9 1 4 8
M  V30 10 3 5 6
M  V30 11 1 6 9
M  V30 12 1 6 13
M  V30 13 1 7 8
M  V30 14 1 7 9
M  V30 15 1 7 14
M  V30 16 1 9 15
M  V30 END BOND
M  V30 END CTAB
M  END
>  <ID>
639
$$$$
Structure_640
Score 	 12.0, smilesprid 	smiles	 smilestrue 	smiles	 similartanimoto 	0	 similardice 	0

   15   16  0  0  0  0            999 V3000
M  V30 BEGIN CTAB
M  V30 COUNTS 15 16 0 0 0
M  V30 BEGIN ATOM
M  V30 1 C -2.5391 -0.1953 0.0000 0
M  V30 2 C -1.7578 -1.3672 0.0000 0
M  V30 3 C -1.7578 0.9766 0.0000 0
M  V30 4 C -0.3906 -0.7812 0.0000 0
M  V30 5 C -0.3906 0.5859 0.0000 0
M  V30 6 C 0.7812 1.1719 0.0000 0
M  V30 7 C 1.9531 -0.7812 0.0000 0
M  V30 8 N 0.7812 -1.5625 0.0000 0
M  V30 9 N 1.9531 0.3906 0.0000 0
M  V30 10 H -3.5156 -0.1953 0.0000 0
M  V30 11 H -2.1484 2.1484 0.0000 0
M  V30 12 H -1.9531 -2.3438 0.0000 0
M  V30 13 H 0.9766 2.3438 0.0000 0
M  V30 14 H 2.9297 -1.3672 0.0000 0
M  V30 15 H 2.7344 0.9766 0.0000 0
M  V30 END ATOM
M  V30 BEGIN BOND
M  V30 1 1 1 2
M  V30 2 1 1 3
M  V30 3 1 1 10
M  V30 4 3 2 4
M  V30 5 1 2 12
M  V30 6 3 3 5
M  V30 7 1 3 11
M  V30 8 2 4 5
M  V30 9 1 4 8
M  V30 10 3 5 6
M  V30 11 1 6 9
M  V30 12 1 6 13
M  V30 13 1 7 8
M  V30 14 1 7 9
M  V30 15 1 7 14
M  V30 16 1 9 15
M  V30 END BOND
M  V30 END CTAB
M  END
>  <ID>
640
$$$$
Structure_641
Score 	 12.0, smilesprid 	smiles	 smilestrue 	smiles	 similartanimoto 	0	 similardice 	0

   15   16  0  0  0  0            999 V3000
M  V30 BEGIN CTAB
M  V30 COUNTS 15 16 0 0 0
M  V30 BEGIN ATOM
M  V30 1 C -2.5391 -0.1953 0.0000 0
M  V30 2 C -1.7578 -1.3672 0.0000 0
M  V30 3 C -1.7578 0.9766 0.0000 0
M  V30 4 C -0.3906 -0.7812 0.0000 0
M  V30 5 C -0.3906 0.5859 0.0000 0
M  V30 6 C 0.7812 1.1719 0.0000 0
M  V30 7 C 1.9531 -0.7812 0.0000 0
M  V30 8 N 0.7812 -1.5625 0.0000 0
M  V30 9 N 1.9531 0.3906 0.0000 0
M  V30 10 H -3.5156 -0.1953 0.0000 0
M  V30 11 H -2.1484 2.1484 0.0000 0
M  V30 12 H -1.9531 -2.3438 0.0000 0
M  V30 13 H 0.9766 2.3438 0.0000 0
M  V30 14 H 2.9297 -1.3672 0.0000 0
M  V30 15 H 2.7344 0.9766 0.0000 0
M  V30 END ATOM
M  V30 BEGIN BOND
M  V30 1 2 1 2
M  V30 2 1 1 3
M  V30 3 1 1 10
M  V30 4 3 2 4
M  V30 5 1 2 12
M  V30 6 3 3 5
M  V30 7 1 3 11
M  V30 8 2 4 5
M  V30 9 1 4 8
M  V30 10 3 5 6
M  V30 11 1 6 9
M  V30 12 1 6 13
M  V30 13 1 7 8
M  V30 14 1 7 9
M  V30 15 1 7 14
M  V30 16 1 9 15
M  V30 END BOND
M  V30 END CTAB
M  END
>  <ID>
641
$$$$
Structure_642
Score 	 14.0, smilesprid 	smiles	 smilestrue 	smiles	 similartanimoto 	0	 similardice 	0

   15   16  0  0  0  0            999 V3000
M  V30 BEGIN CTAB
M  V30 COUNTS 15 16 0 0 0
M  V30 BEGIN ATOM
M  V30 1 C -2.5391 -0.1953 0.0000 0
M  V30 2 C -1.7578 -1.3672 0.0000 0
M  V30 3 C -1.7578 0.9766 0.0000 0
M  V30 4 C -0.3906 -0.7812 0.0000 0
M  V30 5 C -0.3906 0.5859 0.0000 0
M  V30 6 C 0.7812 1.1719 0.0000 0
M  V30 7 C 1.9531 -0.7812 0.0000 0
M  V30 8 N 0.7812 -1.5625 0.0000 0
M  V30 9 N 1.9531 0.3906 0.0000 0
M  V30 10 H -3.5156 -0.1953 0.0000 0
M  V30 11 H -2.1484 2.1484 0.0000 0
M  V30 12 H -1.9531 -2.3438 0.0000 0
M  V30 13 H 0.9766 2.3438 0.0000 0
M  V30 14 H 2.9297 -1.3672 0.0000 0
M  V30 15 H 2.7344 0.9766 0.0000 0
M  V30 END ATOM
M  V30 BEGIN BOND
M  V30 1 3 1 2
M  V30 2 1 1 3
M  V30 3 1 1 10
M  V30 4 3 2 4
M  V30 5 1 2 12
M  V30 6 3 3 5
M  V30 7 1 3 11
M  V30 8 2 4 5
M  V30 9 1 4 8
M  V30 10 3 5 6
M  V30 11 1 6 9
M  V30 12 1 6 13
M  V30 13 1 7 8
M  V30 14 1 7 9
M  V30 15 1 7 14
M  V30 16 1 9 15
M  V30 END BOND
M  V30 END CTAB
M  END
>  <ID>
642
$$$$
Structure_643
Score 	 12.0, smilesprid 	smiles	 smilestrue 	smiles	 similartanimoto 	0	 similardice 	0

   15   16  0  0  0  0            999 V3000
M  V30 BEGIN CTAB
M  V30 COUNTS 15 16 0 0 0
M  V30 BEGIN ATOM
M  V30 1 C -2.5391 -0.1953 0.0000 0
M  V30 2 C -1.7578 -1.3672 0.0000 0
M  V30 3 C -1.7578 0.9766 0.0000 0
M  V30 4 C -0.3906 -0.7812 0.0000 0
M  V30 5 C -0.3906 0.5859 0.0000 0
M  V30 6 C 0.7812 1.1719 0.0000 0
M  V30 7 C 1.9531 -0.7812 0.0000 0
M  V30 8 N 0.7812 -1.5625 0.0000 0
M  V30 9 N 1.9531 0.3906 0.0000 0
M  V30 10 H -3.5156 -0.1953 0.0000 0
M  V30 11 H -2.1484 2.1484 0.0000 0
M  V30 12 H -1.9531 -2.3438 0.0000 0
M  V30 13 H 0.9766 2.3438 0.0000 0
M  V30 14 H 2.9297 -1.3672 0.0000 0
M  V30 15 H 2.7344 0.9766 0.0000 0
M  V30 END ATOM
M  V30 BEGIN BOND
M  V30 1 1 1 2
M  V30 2 2 1 3
M  V30 3 1 1 10
M  V30 4 3 2 4
M  V30 5 1 2 12
M  V30 6 3 3 5
M  V30 7 1 3 11
M  V30 8 2 4 5
M  V30 9 1 4 8
M  V30 10 3 5 6
M  V30 11 1 6 9
M  V30 12 1 6 13
M  V30 13 1 7 8
M  V30 14 1 7 9
M  V30 15 1 7 14
M  V30 16 1 9 15
M  V30 END BOND
M  V30 END CTAB
M  END
>  <ID>
643
$$$$
Structure_644
Score 	 14.0, smilesprid 	smiles	 smilestrue 	smiles	 similartanimoto 	0	 similardice 	0

   15   16  0  0  0  0            999 V3000
M  V30 BEGIN CTAB
M  V30 COUNTS 15 16 0 0 0
M  V30 BEGIN ATOM
M  V30 1 C -2.5391 -0.1953 0.0000 0
M  V30 2 C -1.7578 -1.3672 0.0000 0
M  V30 3 C -1.7578 0.9766 0.0000 0
M  V30 4 C -0.3906 -0.7812 0.0000 0
M  V30 5 C -0.3906 0.5859 0.0000 0
M  V30 6 C 0.7812 1.1719 0.0000 0
M  V30 7 C 1.9531 -0.7812 0.0000 0
M  V30 8 N 0.7812 -1.5625 0.0000 0
M  V30 9 N 1.9531 0.3906 0.0000 0
M  V30 10 H -3.5156 -0.1953 0.0000 0
M  V30 11 H -2.1484 2.1484 0.0000 0
M  V30 12 H -1.9531 -2.3438 0.0000 0
M  V30 13 H 0.9766 2.3438 0.0000 0
M  V30 14 H 2.9297 -1.3672 0.0000 0
M  V30 15 H 2.7344 0.9766 0.0000 0
M  V30 END ATOM
M  V30 BEGIN BOND
M  V30 1 2 1 2
M  V30 2 2 1 3
M  V30 3 1 1 10
M  V30 4 3 2 4
M  V30 5 1 2 12
M  V30 6 3 3 5
M  V30 7 1 3 11
M  V30 8 2 4 5
M  V30 9 1 4 8
M  V30 10 3 5 6
M  V30 11 1 6 9
M  V30 12 1 6 13
M  V30 13 1 7 8
M  V30 14 1 7 9
M  V30 15 1 7 14
M  V30 16 1 9 15
M  V30 END BOND
M  V30 END CTAB
M  END
>  <ID>
644
$$$$
Structure_645
Score 	 16.0, smilesprid 	smiles	 smilestrue 	smiles	 similartanimoto 	0	 similardice 	0

   15   16  0  0  0  0            999 V3000
M  V30 BEGIN CTAB
M  V30 COUNTS 15 16 0 0 0
M  V30 BEGIN ATOM
M  V30 1 C -2.5391 -0.1953 0.0000 0
M  V30 2 C -1.7578 -1.3672 0.0000 0
M  V30 3 C -1.7578 0.9766 0.0000 0
M  V30 4 C -0.3906 -0.7812 0.0000 0
M  V30 5 C -0.3906 0.5859 0.0000 0
M  V30 6 C 0.7812 1.1719 0.0000 0
M  V30 7 C 1.9531 -0.7812 0.0000 0
M  V30 8 N 0.7812 -1.5625 0.0000 0
M  V30 9 N 1.9531 0.3906 0.0000 0
M  V30 10 H -3.5156 -0.1953 0.0000 0
M  V30 11 H -2.1484 2.1484 0.0000 0
M  V30 12 H -1.9531 -2.3438 0.0000 0
M  V30 13 H 0.9766 2.3438 0.0000 0
M  V30 14 H 2.9297 -1.3672 0.0000 0
M  V30 15 H 2.7344 0.9766 0.0000 0
M  V30 END ATOM
M  V30 BEGIN BOND
M  V30 1 3 1 2
M  V30 2 2 1 3
M  V30 3 1 1 10
M  V30 4 3 2 4
M  V30 5 1 2 12
M  V30 6 3 3 5
M  V30 7 1 3 11
M  V30 8 2 4 5
M  V30 9 1 4 8
M  V30 10 3 5 6
M  V30 11 1 6 9
M  V30 12 1 6 13
M  V30 13 1 7 8
M  V30 14 1 7 9
M  V30 15 1 7 14
M  V30 16 1 9 15
M  V30 END BOND
M  V30 END CTAB
M  END
>  <ID>
645
$$$$
Structure_646
Score 	 14.0, smilesprid 	smiles	 smilestrue 	smiles	 similartanimoto 	0	 similardice 	0

   15   16  0  0  0  0            999 V3000
M  V30 BEGIN CTAB
M  V30 COUNTS 15 16 0 0 0
M  V30 BEGIN ATOM
M  V30 1 C -2.5391 -0.1953 0.0000 0
M  V30 2 C -1.7578 -1.3672 0.0000 0
M  V30 3 C -1.7578 0.9766 0.0000 0
M  V30 4 C -0.3906 -0.7812 0.0000 0
M  V30 5 C -0.3906 0.5859 0.0000 0
M  V30 6 C 0.7812 1.1719 0.0000 0
M  V30 7 C 1.9531 -0.7812 0.0000 0
M  V30 8 N 0.7812 -1.5625 0.0000 0
M  V30 9 N 1.9531 0.3906 0.0000 0
M  V30 10 H -3.5156 -0.1953 0.0000 0
M  V30 11 H -2.1484 2.1484 0.0000 0
M  V30 12 H -1.9531 -2.3438 0.0000 0
M  V30 13 H 0.9766 2.3438 0.0000 0
M  V30 14 H 2.9297 -1.3672 0.0000 0
M  V30 15 H 2.7344 0.9766 0.0000 0
M  V30 END ATOM
M  V30 BEGIN BOND
M  V30 1 1 1 2
M  V30 2 3 1 3
M  V30 3 1 1 10
M  V30 4 3 2 4
M  V30 5 1 2 12
M  V30 6 3 3 5
M  V30 7 1 3 11
M  V30 8 2 4 5
M  V30 9 1 4 8
M  V30 10 3 5 6
M  V30 11 1 6 9
M  V30 12 1 6 13
M  V30 13 1 7 8
M  V30 14 1 7 9
M  V30 15 1 7 14
M  V30 16 1 9 15
M  V30 END BOND
M  V30 END CTAB
M  END
>  <ID>
646
$$$$
Structure_647
Score 	 16.0, smilesprid 	smiles	 smilestrue 	smiles	 similartanimoto 	0	 similardice 	0

   15   16  0  0  0  0            999 V3000
M  V30 BEGIN CTAB
M  V30 COUNTS 15 16 0 0 0
M  V30 BEGIN ATOM
M  V30 1 C -2.5391 -0.1953 0.0000 0
M  V30 2 C -1.7578 -1.3672 0.0000 0
M  V30 3 C -1.7578 0.9766 0.0000 0
M  V30 4 C -0.3906 -0.7812 0.0000 0
M  V30 5 C -0.3906 0.5859 0.0000 0
M  V30 6 C 0.7812 1.1719 0.0000 0
M  V30 7 C 1.9531 -0.7812 0.0000 0
M  V30 8 N 0.7812 -1.5625 0.0000 0
M  V30 9 N 1.9531 0.3906 0.0000 0
M  V30 10 H -3.5156 -0.1953 0.0000 0
M  V30 11 H -2.1484 2.1484 0.0000 0
M  V30 12 H -1.9531 -2.3438 0.0000 0
M  V30 13 H 0.9766 2.3438 0.0000 0
M  V30 14 H 2.9297 -1.3672 0.0000 0
M  V30 15 H 2.7344 0.9766 0.0000 0
M  V30 END ATOM
M  V30 BEGIN BOND
M  V30 1 2 1 2
M  V30 2 3 1 3
M  V30 3 1 1 10
M  V30 4 3 2 4
M  V30 5 1 2 12
M  V30 6 3 3 5
M  V30 7 1 3 11
M  V30 8 2 4 5
M  V30 9 1 4 8
M  V30 10 3 5 6
M  V30 11 1 6 9
M  V30 12 1 6 13
M  V30 13 1 7 8
M  V30 14 1 7 9
M  V30 15 1 7 14
M  V30 16 1 9 15
M  V30 END BOND
M  V30 END CTAB
M  END
>  <ID>
647
$$$$
Structure_648
Score 	 18.0, smilesprid 	smiles	 smilestrue 	smiles	 similartanimoto 	0	 similardice 	0

   15   16  0  0  0  0            999 V3000
M  V30 BEGIN CTAB
M  V30 COUNTS 15 16 0 0 0
M  V30 BEGIN ATOM
M  V30 1 C -2.5391 -0.1953 0.0000 0
M  V30 2 C -1.7578 -1.3672 0.0000 0
M  V30 3 C -1.7578 0.9766 0.0000 0
M  V30 4 C -0.3906 -0.7812 0.0000 0
M  V30 5 C -0.3906 0.5859 0.0000 0
M  V30 6 C 0.7812 1.1719 0.0000 0
M  V30 7 C 1.9531 -0.7812 0.0000 0
M  V30 8 N 0.7812 -1.5625 0.0000 0
M  V30 9 N 1.9531 0.3906 0.0000 0
M  V30 10 H -3.5156 -0.1953 0.0000 0
M  V30 11 H -2.1484 2.1484 0.0000 0
M  V30 12 H -1.9531 -2.3438 0.0000 0
M  V30 13 H 0.9766 2.3438 0.0000 0
M  V30 14 H 2.9297 -1.3672 0.0000 0
M  V30 15 H 2.7344 0.9766 0.0000 0
M  V30 END ATOM
M  V30 BEGIN BOND
M  V30 1 3 1 2
M  V30 2 3 1 3
M  V30 3 1 1 10
M  V30 4 3 2 4
M  V30 5 1 2 12
M  V30 6 3 3 5
M  V30 7 1 3 11
M  V30 8 2 4 5
M  V30 9 1 4 8
M  V30 10 3 5 6
M  V30 11 1 6 9
M  V30 12 1 6 13
M  V30 13 1 7 8
M  V30 14 1 7 9
M  V30 15 1 7 14
M  V30 16 1 9 15
M  V30 END BOND
M  V30 END CTAB
M  END
>  <ID>
648
$$$$
Structure_649
Score 	 10.0, smilesprid 	smiles	 smilestrue 	smiles	 similartanimoto 	0	 similardice 	0

   15   16  0  0  0  0            999 V3000
M  V30 BEGIN CTAB
M  V30 COUNTS 15 16 0 0 0
M  V30 BEGIN ATOM
M  V30 1 C -2.5391 -0.1953 0.0000 0
M  V30 2 C -1.7578 -1.3672 0.0000 0
M  V30 3 C -1.7578 0.9766 0.0000 0
M  V30 4 C -0.3906 -0.7812 0.0000 0
M  V30 5 C -0.3906 0.5859 0.0000 0
M  V30 6 C 0.7812 1.1719 0.0000 0
M  V30 7 C 1.9531 -0.7812 0.0000 0
M  V30 8 N 0.7812 -1.5625 0.0000 0
M  V30 9 N 1.9531 0.3906 0.0000 0
M  V30 10 H -3.5156 -0.1953 0.0000 0
M  V30 11 H -2.1484 2.1484 0.0000 0
M  V30 12 H -1.9531 -2.3438 0.0000 0
M  V30 13 H 0.9766 2.3438 0.0000 0
M  V30 14 H 2.9297 -1.3672 0.0000 0
M  V30 15 H 2.7344 0.9766 0.0000 0
M  V30 END ATOM
M  V30 BEGIN BOND
M  V30 1 1 1 2
M  V30 2 1 1 3
M  V30 3 1 1 10
M  V30 4 1 2 4
M  V30 5 1 2 12
M  V30 6 1 3 5
M  V30 7 1 3 11
M  V30 8 3 4 5
M  V30 9 1 4 8
M  V30 10 3 5 6
M  V30 11 1 6 9
M  V30 12 1 6 13
M  V30 13 1 7 8
M  V30 14 1 7 9
M  V30 15 1 7 14
M  V30 16 1 9 15
M  V30 END BOND
M  V30 END CTAB
M  END
>  <ID>
649
$$$$
Structure_650
Score 	 8.0, smilesprid 	smiles	 smilestrue 	smiles	 similartanimoto 	0	 similardice 	0

   15   16  0  0  0  0            999 V3000
M  V30 BEGIN CTAB
M  V30 COUNTS 15 16 0 0 0
M  V30 BEGIN ATOM
M  V30 1 C -2.5391 -0.1953 0.0000 0
M  V30 2 C -1.7578 -1.3672 0.0000 0
M  V30 3 C -1.7578 0.9766 0.0000 0
M  V30 4 C -0.3906 -0.7812 0.0000 0
M  V30 5 C -0.3906 0.5859 0.0000 0
M  V30 6 C 0.7812 1.1719 0.0000 0
M  V30 7 C 1.9531 -0.7812 0.0000 0
M  V30 8 N 0.7812 -1.5625 0.0000 0
M  V30 9 N 1.9531 0.3906 0.0000 0
M  V30 10 H -3.5156 -0.1953 0.0000 0
M  V30 11 H -2.1484 2.1484 0.0000 0
M  V30 12 H -1.9531 -2.3438 0.0000 0
M  V30 13 H 0.9766 2.3438 0.0000 0
M  V30 14 H 2.9297 -1.3672 0.0000 0
M  V30 15 H 2.7344 0.9766 0.0000 0
M  V30 END ATOM
M  V30 BEGIN BOND
M  V30 1 2 1 2
M  V30 2 1 1 3
M  V30 3 1 1 10
M  V30 4 1 2 4
M  V30 5 1 2 12
M  V30 6 1 3 5
M  V30 7 1 3 11
M  V30 8 3 4 5
M  V30 9 1 4 8
M  V30 10 3 5 6
M  V30 11 1 6 9
M  V30 12 1 6 13
M  V30 13 1 7 8
M  V30 14 1 7 9
M  V30 15 1 7 14
M  V30 16 1 9 15
M  V30 END BOND
M  V30 END CTAB
M  END
>  <ID>
650
$$$$
Structure_651
Score 	 10.0, smilesprid 	smiles	 smilestrue 	smiles	 similartanimoto 	0	 similardice 	0

   15   16  0  0  0  0            999 V3000
M  V30 BEGIN CTAB
M  V30 COUNTS 15 16 0 0 0
M  V30 BEGIN ATOM
M  V30 1 C -2.5391 -0.1953 0.0000 0
M  V30 2 C -1.7578 -1.3672 0.0000 0
M  V30 3 C -1.7578 0.9766 0.0000 0
M  V30 4 C -0.3906 -0.7812 0.0000 0
M  V30 5 C -0.3906 0.5859 0.0000 0
M  V30 6 C 0.7812 1.1719 0.0000 0
M  V30 7 C 1.9531 -0.7812 0.0000 0
M  V30 8 N 0.7812 -1.5625 0.0000 0
M  V30 9 N 1.9531 0.3906 0.0000 0
M  V30 10 H -3.5156 -0.1953 0.0000 0
M  V30 11 H -2.1484 2.1484 0.0000 0
M  V30 12 H -1.9531 -2.3438 0.0000 0
M  V30 13 H 0.9766 2.3438 0.0000 0
M  V30 14 H 2.9297 -1.3672 0.0000 0
M  V30 15 H 2.7344 0.9766 0.0000 0
M  V30 END ATOM
M  V30 BEGIN BOND
M  V30 1 3 1 2
M  V30 2 1 1 3
M  V30 3 1 1 10
M  V30 4 1 2 4
M  V30 5 1 2 12
M  V30 6 1 3 5
M  V30 7 1 3 11
M  V30 8 3 4 5
M  V30 9 1 4 8
M  V30 10 3 5 6
M  V30 11 1 6 9
M  V30 12 1 6 13
M  V30 13 1 7 8
M  V30 14 1 7 9
M  V30 15 1 7 14
M  V30 16 1 9 15
M  V30 END BOND
M  V30 END CTAB
M  END
>  <ID>
651
$$$$
Structure_652
Score 	 8.0, smilesprid 	smiles	 smilestrue 	smiles	 similartanimoto 	0	 similardice 	0

   15   16  0  0  0  0            999 V3000
M  V30 BEGIN CTAB
M  V30 COUNTS 15 16 0 0 0
M  V30 BEGIN ATOM
M  V30 1 C -2.5391 -0.1953 0.0000 0
M  V30 2 C -1.7578 -1.3672 0.0000 0
M  V30 3 C -1.7578 0.9766 0.0000 0
M  V30 4 C -0.3906 -0.7812 0.0000 0
M  V30 5 C -0.3906 0.5859 0.0000 0
M  V30 6 C 0.7812 1.1719 0.0000 0
M  V30 7 C 1.9531 -0.7812 0.0000 0
M  V30 8 N 0.7812 -1.5625 0.0000 0
M  V30 9 N 1.9531 0.3906 0.0000 0
M  V30 10 H -3.5156 -0.1953 0.0000 0
M  V30 11 H -2.1484 2.1484 0.0000 0
M  V30 12 H -1.9531 -2.3438 0.0000 0
M  V30 13 H 0.9766 2.3438 0.0000 0
M  V30 14 H 2.9297 -1.3672 0.0000 0
M  V30 15 H 2.7344 0.9766 0.0000 0
M  V30 END ATOM
M  V30 BEGIN BOND
M  V30 1 1 1 2
M  V30 2 2 1 3
M  V30 3 1 1 10
M  V30 4 1 2 4
M  V30 5 1 2 12
M  V30 6 1 3 5
M  V30 7 1 3 11
M  V30 8 3 4 5
M  V30 9 1 4 8
M  V30 10 3 5 6
M  V30 11 1 6 9
M  V30 12 1 6 13
M  V30 13 1 7 8
M  V30 14 1 7 9
M  V30 15 1 7 14
M  V30 16 1 9 15
M  V30 END BOND
M  V30 END CTAB
M  END
>  <ID>
652
$$$$
Structure_653
Score 	 8.0, smilesprid 	smiles	 smilestrue 	smiles	 similartanimoto 	0	 similardice 	0

   15   16  0  0  0  0            999 V3000
M  V30 BEGIN CTAB
M  V30 COUNTS 15 16 0 0 0
M  V30 BEGIN ATOM
M  V30 1 C -2.5391 -0.1953 0.0000 0
M  V30 2 C -1.7578 -1.3672 0.0000 0
M  V30 3 C -1.7578 0.9766 0.0000 0
M  V30 4 C -0.3906 -0.7812 0.0000 0
M  V30 5 C -0.3906 0.5859 0.0000 0
M  V30 6 C 0.7812 1.1719 0.0000 0
M  V30 7 C 1.9531 -0.7812 0.0000 0
M  V30 8 N 0.7812 -1.5625 0.0000 0
M  V30 9 N 1.9531 0.3906 0.0000 0
M  V30 10 H -3.5156 -0.1953 0.0000 0
M  V30 11 H -2.1484 2.1484 0.0000 0
M  V30 12 H -1.9531 -2.3438 0.0000 0
M  V30 13 H 0.9766 2.3438 0.0000 0
M  V30 14 H 2.9297 -1.3672 0.0000 0
M  V30 15 H 2.7344 0.9766 0.0000 0
M  V30 END ATOM
M  V30 BEGIN BOND
M  V30 1 2 1 2
M  V30 2 2 1 3
M  V30 3 1 1 10
M  V30 4 1 2 4
M  V30 5 1 2 12
M  V30 6 1 3 5
M  V30 7 1 3 11
M  V30 8 3 4 5
M  V30 9 1 4 8
M  V30 10 3 5 6
M  V30 11 1 6 9
M  V30 12 1 6 13
M  V30 13 1 7 8
M  V30 14 1 7 9
M  V30 15 1 7 14
M  V30 16 1 9 15
M  V30 END BOND
M  V30 END CTAB
M  END
>  <ID>
653
$$$$
Structure_654
Score 	 10.0, smilesprid 	smiles	 smilestrue 	smiles	 similartanimoto 	0	 similardice 	0

   15   16  0  0  0  0            999 V3000
M  V30 BEGIN CTAB
M  V30 COUNTS 15 16 0 0 0
M  V30 BEGIN ATOM
M  V30 1 C -2.5391 -0.1953 0.0000 0
M  V30 2 C -1.7578 -1.3672 0.0000 0
M  V30 3 C -1.7578 0.9766 0.0000 0
M  V30 4 C -0.3906 -0.7812 0.0000 0
M  V30 5 C -0.3906 0.5859 0.0000 0
M  V30 6 C 0.7812 1.1719 0.0000 0
M  V30 7 C 1.9531 -0.7812 0.0000 0
M  V30 8 N 0.7812 -1.5625 0.0000 0
M  V30 9 N 1.9531 0.3906 0.0000 0
M  V30 10 H -3.5156 -0.1953 0.0000 0
M  V30 11 H -2.1484 2.1484 0.0000 0
M  V30 12 H -1.9531 -2.3438 0.0000 0
M  V30 13 H 0.9766 2.3438 0.0000 0
M  V30 14 H 2.9297 -1.3672 0.0000 0
M  V30 15 H 2.7344 0.9766 0.0000 0
M  V30 END ATOM
M  V30 BEGIN BOND
M  V30 1 3 1 2
M  V30 2 2 1 3
M  V30 3 1 1 10
M  V30 4 1 2 4
M  V30 5 1 2 12
M  V30 6 1 3 5
M  V30 7 1 3 11
M  V30 8 3 4 5
M  V30 9 1 4 8
M  V30 10 3 5 6
M  V30 11 1 6 9
M  V30 12 1 6 13
M  V30 13 1 7 8
M  V30 14 1 7 9
M  V30 15 1 7 14
M  V30 16 1 9 15
M  V30 END BOND
M  V30 END CTAB
M  END
>  <ID>
654
$$$$
Structure_655
Score 	 10.0, smilesprid 	smiles	 smilestrue 	smiles	 similartanimoto 	0	 similardice 	0

   15   16  0  0  0  0            999 V3000
M  V30 BEGIN CTAB
M  V30 COUNTS 15 16 0 0 0
M  V30 BEGIN ATOM
M  V30 1 C -2.5391 -0.1953 0.0000 0
M  V30 2 C -1.7578 -1.3672 0.0000 0
M  V30 3 C -1.7578 0.9766 0.0000 0
M  V30 4 C -0.3906 -0.7812 0.0000 0
M  V30 5 C -0.3906 0.5859 0.0000 0
M  V30 6 C 0.7812 1.1719 0.0000 0
M  V30 7 C 1.9531 -0.7812 0.0000 0
M  V30 8 N 0.7812 -1.5625 0.0000 0
M  V30 9 N 1.9531 0.3906 0.0000 0
M  V30 10 H -3.5156 -0.1953 0.0000 0
M  V30 11 H -2.1484 2.1484 0.0000 0
M  V30 12 H -1.9531 -2.3438 0.0000 0
M  V30 13 H 0.9766 2.3438 0.0000 0
M  V30 14 H 2.9297 -1.3672 0.0000 0
M  V30 15 H 2.7344 0.9766 0.0000 0
M  V30 END ATOM
M  V30 BEGIN BOND
M  V30 1 1 1 2
M  V30 2 3 1 3
M  V30 3 1 1 10
M  V30 4 1 2 4
M  V30 5 1 2 12
M  V30 6 1 3 5
M  V30 7 1 3 11
M  V30 8 3 4 5
M  V30 9 1 4 8
M  V30 10 3 5 6
M  V30 11 1 6 9
M  V30 12 1 6 13
M  V30 13 1 7 8
M  V30 14 1 7 9
M  V30 15 1 7 14
M  V30 16 1 9 15
M  V30 END BOND
M  V30 END CTAB
M  END
>  <ID>
655
$$$$
Structure_656
Score 	 10.0, smilesprid 	smiles	 smilestrue 	smiles	 similartanimoto 	0	 similardice 	0

   15   16  0  0  0  0            999 V3000
M  V30 BEGIN CTAB
M  V30 COUNTS 15 16 0 0 0
M  V30 BEGIN ATOM
M  V30 1 C -2.5391 -0.1953 0.0000 0
M  V30 2 C -1.7578 -1.3672 0.0000 0
M  V30 3 C -1.7578 0.9766 0.0000 0
M  V30 4 C -0.3906 -0.7812 0.0000 0
M  V30 5 C -0.3906 0.5859 0.0000 0
M  V30 6 C 0.7812 1.1719 0.0000 0
M  V30 7 C 1.9531 -0.7812 0.0000 0
M  V30 8 N 0.7812 -1.5625 0.0000 0
M  V30 9 N 1.9531 0.3906 0.0000 0
M  V30 10 H -3.5156 -0.1953 0.0000 0
M  V30 11 H -2.1484 2.1484 0.0000 0
M  V30 12 H -1.9531 -2.3438 0.0000 0
M  V30 13 H 0.9766 2.3438 0.0000 0
M  V30 14 H 2.9297 -1.3672 0.0000 0
M  V30 15 H 2.7344 0.9766 0.0000 0
M  V30 END ATOM
M  V30 BEGIN BOND
M  V30 1 2 1 2
M  V30 2 3 1 3
M  V30 3 1 1 10
M  V30 4 1 2 4
M  V30 5 1 2 12
M  V30 6 1 3 5
M  V30 7 1 3 11
M  V30 8 3 4 5
M  V30 9 1 4 8
M  V30 10 3 5 6
M  V30 11 1 6 9
M  V30 12 1 6 13
M  V30 13 1 7 8
M  V30 14 1 7 9
M  V30 15 1 7 14
M  V30 16 1 9 15
M  V30 END BOND
M  V30 END CTAB
M  END
>  <ID>
656
$$$$
Structure_657
Score 	 12.0, smilesprid 	smiles	 smilestrue 	smiles	 similartanimoto 	0	 similardice 	0

   15   16  0  0  0  0            999 V3000
M  V30 BEGIN CTAB
M  V30 COUNTS 15 16 0 0 0
M  V30 BEGIN ATOM
M  V30 1 C -2.5391 -0.1953 0.0000 0
M  V30 2 C -1.7578 -1.3672 0.0000 0
M  V30 3 C -1.7578 0.9766 0.0000 0
M  V30 4 C -0.3906 -0.7812 0.0000 0
M  V30 5 C -0.3906 0.5859 0.0000 0
M  V30 6 C 0.7812 1.1719 0.0000 0
M  V30 7 C 1.9531 -0.7812 0.0000 0
M  V30 8 N 0.7812 -1.5625 0.0000 0
M  V30 9 N 1.9531 0.3906 0.0000 0
M  V30 10 H -3.5156 -0.1953 0.0000 0
M  V30 11 H -2.1484 2.1484 0.0000 0
M  V30 12 H -1.9531 -2.3438 0.0000 0
M  V30 13 H 0.9766 2.3438 0.0000 0
M  V30 14 H 2.9297 -1.3672 0.0000 0
M  V30 15 H 2.7344 0.9766 0.0000 0
M  V30 END ATOM
M  V30 BEGIN BOND
M  V30 1 3 1 2
M  V30 2 3 1 3
M  V30 3 1 1 10
M  V30 4 1 2 4
M  V30 5 1 2 12
M  V30 6 1 3 5
M  V30 7 1 3 11
M  V30 8 3 4 5
M  V30 9 1 4 8
M  V30 10 3 5 6
M  V30 11 1 6 9
M  V30 12 1 6 13
M  V30 13 1 7 8
M  V30 14 1 7 9
M  V30 15 1 7 14
M  V30 16 1 9 15
M  V30 END BOND
M  V30 END CTAB
M  END
>  <ID>
657
$$$$
Structure_658
Score 	 10.0, smilesprid 	smiles	 smilestrue 	smiles	 similartanimoto 	0	 similardice 	0

   15   16  0  0  0  0            999 V3000
M  V30 BEGIN CTAB
M  V30 COUNTS 15 16 0 0 0
M  V30 BEGIN ATOM
M  V30 1 C -2.5391 -0.1953 0.0000 0
M  V30 2 C -1.7578 -1.3672 0.0000 0
M  V30 3 C -1.7578 0.9766 0.0000 0
M  V30 4 C -0.3906 -0.7812 0.0000 0
M  V30 5 C -0.3906 0.5859 0.0000 0
M  V30 6 C 0.7812 1.1719 0.0000 0
M  V30 7 C 1.9531 -0.7812 0.0000 0
M  V30 8 N 0.7812 -1.5625 0.0000 0
M  V30 9 N 1.9531 0.3906 0.0000 0
M  V30 10 H -3.5156 -0.1953 0.0000 0
M  V30 11 H -2.1484 2.1484 0.0000 0
M  V30 12 H -1.9531 -2.3438 0.0000 0
M  V30 13 H 0.9766 2.3438 0.0000 0
M  V30 14 H 2.9297 -1.3672 0.0000 0
M  V30 15 H 2.7344 0.9766 0.0000 0
M  V30 END ATOM
M  V30 BEGIN BOND
M  V30 1 1 1 2
M  V30 2 1 1 3
M  V30 3 1 1 10
M  V30 4 1 2 4
M  V30 5 1 2 12
M  V30 6 2 3 5
M  V30 7 1 3 11
M  V30 8 3 4 5
M  V30 9 1 4 8
M  V30 10 3 5 6
M  V30 11 1 6 9
M  V30 12 1 6 13
M  V30 13 1 7 8
M  V30 14 1 7 9
M  V30 15 1 7 14
M  V30 16 1 9 15
M  V30 END BOND
M  V30 END CTAB
M  END
>  <ID>
658
$$$$
Structure_659
Score 	 8.0, smilesprid 	smiles	 smilestrue 	smiles	 similartanimoto 	0	 similardice 	0

   15   16  0  0  0  0            999 V3000
M  V30 BEGIN CTAB
M  V30 COUNTS 15 16 0 0 0
M  V30 BEGIN ATOM
M  V30 1 C -2.5391 -0.1953 0.0000 0
M  V30 2 C -1.7578 -1.3672 0.0000 0
M  V30 3 C -1.7578 0.9766 0.0000 0
M  V30 4 C -0.3906 -0.7812 0.0000 0
M  V30 5 C -0.3906 0.5859 0.0000 0
M  V30 6 C 0.7812 1.1719 0.0000 0
M  V30 7 C 1.9531 -0.7812 0.0000 0
M  V30 8 N 0.7812 -1.5625 0.0000 0
M  V30 9 N 1.9531 0.3906 0.0000 0
M  V30 10 H -3.5156 -0.1953 0.0000 0
M  V30 11 H -2.1484 2.1484 0.0000 0
M  V30 12 H -1.9531 -2.3438 0.0000 0
M  V30 13 H 0.9766 2.3438 0.0000 0
M  V30 14 H 2.9297 -1.3672 0.0000 0
M  V30 15 H 2.7344 0.9766 0.0000 0
M  V30 END ATOM
M  V30 BEGIN BOND
M  V30 1 2 1 2
M  V30 2 1 1 3
M  V30 3 1 1 10
M  V30 4 1 2 4
M  V30 5 1 2 12
M  V30 6 2 3 5
M  V30 7 1 3 11
M  V30 8 3 4 5
M  V30 9 1 4 8
M  V30 10 3 5 6
M  V30 11 1 6 9
M  V30 12 1 6 13
M  V30 13 1 7 8
M  V30 14 1 7 9
M  V30 15 1 7 14
M  V30 16 1 9 15
M  V30 END BOND
M  V30 END CTAB
M  END
>  <ID>
659
$$$$
Structure_660
Score 	 10.0, smilesprid 	smiles	 smilestrue 	smiles	 similartanimoto 	0	 similardice 	0

   15   16  0  0  0  0            999 V3000
M  V30 BEGIN CTAB
M  V30 COUNTS 15 16 0 0 0
M  V30 BEGIN ATOM
M  V30 1 C -2.5391 -0.1953 0.0000 0
M  V30 2 C -1.7578 -1.3672 0.0000 0
M  V30 3 C -1.7578 0.9766 0.0000 0
M  V30 4 C -0.3906 -0.7812 0.0000 0
M  V30 5 C -0.3906 0.5859 0.0000 0
M  V30 6 C 0.7812 1.1719 0.0000 0
M  V30 7 C 1.9531 -0.7812 0.0000 0
M  V30 8 N 0.7812 -1.5625 0.0000 0
M  V30 9 N 1.9531 0.3906 0.0000 0
M  V30 10 H -3.5156 -0.1953 0.0000 0
M  V30 11 H -2.1484 2.1484 0.0000 0
M  V30 12 H -1.9531 -2.3438 0.0000 0
M  V30 13 H 0.9766 2.3438 0.0000 0
M  V30 14 H 2.9297 -1.3672 0.0000 0
M  V30 15 H 2.7344 0.9766 0.0000 0
M  V30 END ATOM
M  V30 BEGIN BOND
M  V30 1 3 1 2
M  V30 2 1 1 3
M  V30 3 1 1 10
M  V30 4 1 2 4
M  V30 5 1 2 12
M  V30 6 2 3 5
M  V30 7 1 3 11
M  V30 8 3 4 5
M  V30 9 1 4 8
M  V30 10 3 5 6
M  V30 11 1 6 9
M  V30 12 1 6 13
M  V30 13 1 7 8
M  V30 14 1 7 9
M  V30 15 1 7 14
M  V30 16 1 9 15
M  V30 END BOND
M  V30 END CTAB
M  END
>  <ID>
660
$$$$
Structure_661
Score 	 10.0, smilesprid 	smiles	 smilestrue 	smiles	 similartanimoto 	0	 similardice 	0

   15   16  0  0  0  0            999 V3000
M  V30 BEGIN CTAB
M  V30 COUNTS 15 16 0 0 0
M  V30 BEGIN ATOM
M  V30 1 C -2.5391 -0.1953 0.0000 0
M  V30 2 C -1.7578 -1.3672 0.0000 0
M  V30 3 C -1.7578 0.9766 0.0000 0
M  V30 4 C -0.3906 -0.7812 0.0000 0
M  V30 5 C -0.3906 0.5859 0.0000 0
M  V30 6 C 0.7812 1.1719 0.0000 0
M  V30 7 C 1.9531 -0.7812 0.0000 0
M  V30 8 N 0.7812 -1.5625 0.0000 0
M  V30 9 N 1.9531 0.3906 0.0000 0
M  V30 10 H -3.5156 -0.1953 0.0000 0
M  V30 11 H -2.1484 2.1484 0.0000 0
M  V30 12 H -1.9531 -2.3438 0.0000 0
M  V30 13 H 0.9766 2.3438 0.0000 0
M  V30 14 H 2.9297 -1.3672 0.0000 0
M  V30 15 H 2.7344 0.9766 0.0000 0
M  V30 END ATOM
M  V30 BEGIN BOND
M  V30 1 1 1 2
M  V30 2 2 1 3
M  V30 3 1 1 10
M  V30 4 1 2 4
M  V30 5 1 2 12
M  V30 6 2 3 5
M  V30 7 1 3 11
M  V30 8 3 4 5
M  V30 9 1 4 8
M  V30 10 3 5 6
M  V30 11 1 6 9
M  V30 12 1 6 13
M  V30 13 1 7 8
M  V30 14 1 7 9
M  V30 15 1 7 14
M  V30 16 1 9 15
M  V30 END BOND
M  V30 END CTAB
M  END
>  <ID>
661
$$$$
Structure_662
Score 	 10.0, smilesprid 	smiles	 smilestrue 	smiles	 similartanimoto 	0	 similardice 	0

   15   16  0  0  0  0            999 V3000
M  V30 BEGIN CTAB
M  V30 COUNTS 15 16 0 0 0
M  V30 BEGIN ATOM
M  V30 1 C -2.5391 -0.1953 0.0000 0
M  V30 2 C -1.7578 -1.3672 0.0000 0
M  V30 3 C -1.7578 0.9766 0.0000 0
M  V30 4 C -0.3906 -0.7812 0.0000 0
M  V30 5 C -0.3906 0.5859 0.0000 0
M  V30 6 C 0.7812 1.1719 0.0000 0
M  V30 7 C 1.9531 -0.7812 0.0000 0
M  V30 8 N 0.7812 -1.5625 0.0000 0
M  V30 9 N 1.9531 0.3906 0.0000 0
M  V30 10 H -3.5156 -0.1953 0.0000 0
M  V30 11 H -2.1484 2.1484 0.0000 0
M  V30 12 H -1.9531 -2.3438 0.0000 0
M  V30 13 H 0.9766 2.3438 0.0000 0
M  V30 14 H 2.9297 -1.3672 0.0000 0
M  V30 15 H 2.7344 0.9766 0.0000 0
M  V30 END ATOM
M  V30 BEGIN BOND
M  V30 1 2 1 2
M  V30 2 2 1 3
M  V30 3 1 1 10
M  V30 4 1 2 4
M  V30 5 1 2 12
M  V30 6 2 3 5
M  V30 7 1 3 11
M  V30 8 3 4 5
M  V30 9 1 4 8
M  V30 10 3 5 6
M  V30 11 1 6 9
M  V30 12 1 6 13
M  V30 13 1 7 8
M  V30 14 1 7 9
M  V30 15 1 7 14
M  V30 16 1 9 15
M  V30 END BOND
M  V30 END CTAB
M  END
>  <ID>
662
$$$$
Structure_663
Score 	 12.0, smilesprid 	smiles	 smilestrue 	smiles	 similartanimoto 	0	 similardice 	0

   15   16  0  0  0  0            999 V3000
M  V30 BEGIN CTAB
M  V30 COUNTS 15 16 0 0 0
M  V30 BEGIN ATOM
M  V30 1 C -2.5391 -0.1953 0.0000 0
M  V30 2 C -1.7578 -1.3672 0.0000 0
M  V30 3 C -1.7578 0.9766 0.0000 0
M  V30 4 C -0.3906 -0.7812 0.0000 0
M  V30 5 C -0.3906 0.5859 0.0000 0
M  V30 6 C 0.7812 1.1719 0.0000 0
M  V30 7 C 1.9531 -0.7812 0.0000 0
M  V30 8 N 0.7812 -1.5625 0.0000 0
M  V30 9 N 1.9531 0.3906 0.0000 0
M  V30 10 H -3.5156 -0.1953 0.0000 0
M  V30 11 H -2.1484 2.1484 0.0000 0
M  V30 12 H -1.9531 -2.3438 0.0000 0
M  V30 13 H 0.9766 2.3438 0.0000 0
M  V30 14 H 2.9297 -1.3672 0.0000 0
M  V30 15 H 2.7344 0.9766 0.0000 0
M  V30 END ATOM
M  V30 BEGIN BOND
M  V30 1 3 1 2
M  V30 2 2 1 3
M  V30 3 1 1 10
M  V30 4 1 2 4
M  V30 5 1 2 12
M  V30 6 2 3 5
M  V30 7 1 3 11
M  V30 8 3 4 5
M  V30 9 1 4 8
M  V30 10 3 5 6
M  V30 11 1 6 9
M  V30 12 1 6 13
M  V30 13 1 7 8
M  V30 14 1 7 9
M  V30 15 1 7 14
M  V30 16 1 9 15
M  V30 END BOND
M  V30 END CTAB
M  END
>  <ID>
663
$$$$
Structure_664
Score 	 12.0, smilesprid 	smiles	 smilestrue 	smiles	 similartanimoto 	0	 similardice 	0

   15   16  0  0  0  0            999 V3000
M  V30 BEGIN CTAB
M  V30 COUNTS 15 16 0 0 0
M  V30 BEGIN ATOM
M  V30 1 C -2.5391 -0.1953 0.0000 0
M  V30 2 C -1.7578 -1.3672 0.0000 0
M  V30 3 C -1.7578 0.9766 0.0000 0
M  V30 4 C -0.3906 -0.7812 0.0000 0
M  V30 5 C -0.3906 0.5859 0.0000 0
M  V30 6 C 0.7812 1.1719 0.0000 0
M  V30 7 C 1.9531 -0.7812 0.0000 0
M  V30 8 N 0.7812 -1.5625 0.0000 0
M  V30 9 N 1.9531 0.3906 0.0000 0
M  V30 10 H -3.5156 -0.1953 0.0000 0
M  V30 11 H -2.1484 2.1484 0.0000 0
M  V30 12 H -1.9531 -2.3438 0.0000 0
M  V30 13 H 0.9766 2.3438 0.0000 0
M  V30 14 H 2.9297 -1.3672 0.0000 0
M  V30 15 H 2.7344 0.9766 0.0000 0
M  V30 END ATOM
M  V30 BEGIN BOND
M  V30 1 1 1 2
M  V30 2 3 1 3
M  V30 3 1 1 10
M  V30 4 1 2 4
M  V30 5 1 2 12
M  V30 6 2 3 5
M  V30 7 1 3 11
M  V30 8 3 4 5
M  V30 9 1 4 8
M  V30 10 3 5 6
M  V30 11 1 6 9
M  V30 12 1 6 13
M  V30 13 1 7 8
M  V30 14 1 7 9
M  V30 15 1 7 14
M  V30 16 1 9 15
M  V30 END BOND
M  V30 END CTAB
M  END
>  <ID>
664
$$$$
Structure_665
Score 	 12.0, smilesprid 	smiles	 smilestrue 	smiles	 similartanimoto 	0	 similardice 	0

   15   16  0  0  0  0            999 V3000
M  V30 BEGIN CTAB
M  V30 COUNTS 15 16 0 0 0
M  V30 BEGIN ATOM
M  V30 1 C -2.5391 -0.1953 0.0000 0
M  V30 2 C -1.7578 -1.3672 0.0000 0
M  V30 3 C -1.7578 0.9766 0.0000 0
M  V30 4 C -0.3906 -0.7812 0.0000 0
M  V30 5 C -0.3906 0.5859 0.0000 0
M  V30 6 C 0.7812 1.1719 0.0000 0
M  V30 7 C 1.9531 -0.7812 0.0000 0
M  V30 8 N 0.7812 -1.5625 0.0000 0
M  V30 9 N 1.9531 0.3906 0.0000 0
M  V30 10 H -3.5156 -0.1953 0.0000 0
M  V30 11 H -2.1484 2.1484 0.0000 0
M  V30 12 H -1.9531 -2.3438 0.0000 0
M  V30 13 H 0.9766 2.3438 0.0000 0
M  V30 14 H 2.9297 -1.3672 0.0000 0
M  V30 15 H 2.7344 0.9766 0.0000 0
M  V30 END ATOM
M  V30 BEGIN BOND
M  V30 1 2 1 2
M  V30 2 3 1 3
M  V30 3 1 1 10
M  V30 4 1 2 4
M  V30 5 1 2 12
M  V30 6 2 3 5
M  V30 7 1 3 11
M  V30 8 3 4 5
M  V30 9 1 4 8
M  V30 10 3 5 6
M  V30 11 1 6 9
M  V30 12 1 6 13
M  V30 13 1 7 8
M  V30 14 1 7 9
M  V30 15 1 7 14
M  V30 16 1 9 15
M  V30 END BOND
M  V30 END CTAB
M  END
>  <ID>
665
$$$$
Structure_666
Score 	 14.0, smilesprid 	smiles	 smilestrue 	smiles	 similartanimoto 	0	 similardice 	0

   15   16  0  0  0  0            999 V3000
M  V30 BEGIN CTAB
M  V30 COUNTS 15 16 0 0 0
M  V30 BEGIN ATOM
M  V30 1 C -2.5391 -0.1953 0.0000 0
M  V30 2 C -1.7578 -1.3672 0.0000 0
M  V30 3 C -1.7578 0.9766 0.0000 0
M  V30 4 C -0.3906 -0.7812 0.0000 0
M  V30 5 C -0.3906 0.5859 0.0000 0
M  V30 6 C 0.7812 1.1719 0.0000 0
M  V30 7 C 1.9531 -0.7812 0.0000 0
M  V30 8 N 0.7812 -1.5625 0.0000 0
M  V30 9 N 1.9531 0.3906 0.0000 0
M  V30 10 H -3.5156 -0.1953 0.0000 0
M  V30 11 H -2.1484 2.1484 0.0000 0
M  V30 12 H -1.9531 -2.3438 0.0000 0
M  V30 13 H 0.9766 2.3438 0.0000 0
M  V30 14 H 2.9297 -1.3672 0.0000 0
M  V30 15 H 2.7344 0.9766 0.0000 0
M  V30 END ATOM
M  V30 BEGIN BOND
M  V30 1 3 1 2
M  V30 2 3 1 3
M  V30 3 1 1 10
M  V30 4 1 2 4
M  V30 5 1 2 12
M  V30 6 2 3 5
M  V30 7 1 3 11
M  V30 8 3 4 5
M  V30 9 1 4 8
M  V30 10 3 5 6
M  V30 11 1 6 9
M  V30 12 1 6 13
M  V30 13 1 7 8
M  V30 14 1 7 9
M  V30 15 1 7 14
M  V30 16 1 9 15
M  V30 END BOND
M  V30 END CTAB
M  END
>  <ID>
666
$$$$
Structure_667
Score 	 12.0, smilesprid 	smiles	 smilestrue 	smiles	 similartanimoto 	0	 similardice 	0

   15   16  0  0  0  0            999 V3000
M  V30 BEGIN CTAB
M  V30 COUNTS 15 16 0 0 0
M  V30 BEGIN ATOM
M  V30 1 C -2.5391 -0.1953 0.0000 0
M  V30 2 C -1.7578 -1.3672 0.0000 0
M  V30 3 C -1.7578 0.9766 0.0000 0
M  V30 4 C -0.3906 -0.7812 0.0000 0
M  V30 5 C -0.3906 0.5859 0.0000 0
M  V30 6 C 0.7812 1.1719 0.0000 0
M  V30 7 C 1.9531 -0.7812 0.0000 0
M  V30 8 N 0.7812 -1.5625 0.0000 0
M  V30 9 N 1.9531 0.3906 0.0000 0
M  V30 10 H -3.5156 -0.1953 0.0000 0
M  V30 11 H -2.1484 2.1484 0.0000 0
M  V30 12 H -1.9531 -2.3438 0.0000 0
M  V30 13 H 0.9766 2.3438 0.0000 0
M  V30 14 H 2.9297 -1.3672 0.0000 0
M  V30 15 H 2.7344 0.9766 0.0000 0
M  V30 END ATOM
M  V30 BEGIN BOND
M  V30 1 1 1 2
M  V30 2 1 1 3
M  V30 3 1 1 10
M  V30 4 1 2 4
M  V30 5 1 2 12
M  V30 6 3 3 5
M  V30 7 1 3 11
M  V30 8 3 4 5
M  V30 9 1 4 8
M  V30 10 3 5 6
M  V30 11 1 6 9
M  V30 12 1 6 13
M  V30 13 1 7 8
M  V30 14 1 7 9
M  V30 15 1 7 14
M  V30 16 1 9 15
M  V30 END BOND
M  V30 END CTAB
M  END
>  <ID>
667
$$$$
Structure_668
Score 	 10.0, smilesprid 	smiles	 smilestrue 	smiles	 similartanimoto 	0	 similardice 	0

   15   16  0  0  0  0            999 V3000
M  V30 BEGIN CTAB
M  V30 COUNTS 15 16 0 0 0
M  V30 BEGIN ATOM
M  V30 1 C -2.5391 -0.1953 0.0000 0
M  V30 2 C -1.7578 -1.3672 0.0000 0
M  V30 3 C -1.7578 0.9766 0.0000 0
M  V30 4 C -0.3906 -0.7812 0.0000 0
M  V30 5 C -0.3906 0.5859 0.0000 0
M  V30 6 C 0.7812 1.1719 0.0000 0
M  V30 7 C 1.9531 -0.7812 0.0000 0
M  V30 8 N 0.7812 -1.5625 0.0000 0
M  V30 9 N 1.9531 0.3906 0.0000 0
M  V30 10 H -3.5156 -0.1953 0.0000 0
M  V30 11 H -2.1484 2.1484 0.0000 0
M  V30 12 H -1.9531 -2.3438 0.0000 0
M  V30 13 H 0.9766 2.3438 0.0000 0
M  V30 14 H 2.9297 -1.3672 0.0000 0
M  V30 15 H 2.7344 0.9766 0.0000 0
M  V30 END ATOM
M  V30 BEGIN BOND
M  V30 1 2 1 2
M  V30 2 1 1 3
M  V30 3 1 1 10
M  V30 4 1 2 4
M  V30 5 1 2 12
M  V30 6 3 3 5
M  V30 7 1 3 11
M  V30 8 3 4 5
M  V30 9 1 4 8
M  V30 10 3 5 6
M  V30 11 1 6 9
M  V30 12 1 6 13
M  V30 13 1 7 8
M  V30 14 1 7 9
M  V30 15 1 7 14
M  V30 16 1 9 15
M  V30 END BOND
M  V30 END CTAB
M  END
>  <ID>
668
$$$$
Structure_669
Score 	 12.0, smilesprid 	smiles	 smilestrue 	smiles	 similartanimoto 	0	 similardice 	0

   15   16  0  0  0  0            999 V3000
M  V30 BEGIN CTAB
M  V30 COUNTS 15 16 0 0 0
M  V30 BEGIN ATOM
M  V30 1 C -2.5391 -0.1953 0.0000 0
M  V30 2 C -1.7578 -1.3672 0.0000 0
M  V30 3 C -1.7578 0.9766 0.0000 0
M  V30 4 C -0.3906 -0.7812 0.0000 0
M  V30 5 C -0.3906 0.5859 0.0000 0
M  V30 6 C 0.7812 1.1719 0.0000 0
M  V30 7 C 1.9531 -0.7812 0.0000 0
M  V30 8 N 0.7812 -1.5625 0.0000 0
M  V30 9 N 1.9531 0.3906 0.0000 0
M  V30 10 H -3.5156 -0.1953 0.0000 0
M  V30 11 H -2.1484 2.1484 0.0000 0
M  V30 12 H -1.9531 -2.3438 0.0000 0
M  V30 13 H 0.9766 2.3438 0.0000 0
M  V30 14 H 2.9297 -1.3672 0.0000 0
M  V30 15 H 2.7344 0.9766 0.0000 0
M  V30 END ATOM
M  V30 BEGIN BOND
M  V30 1 3 1 2
M  V30 2 1 1 3
M  V30 3 1 1 10
M  V30 4 1 2 4
M  V30 5 1 2 12
M  V30 6 3 3 5
M  V30 7 1 3 11
M  V30 8 3 4 5
M  V30 9 1 4 8
M  V30 10 3 5 6
M  V30 11 1 6 9
M  V30 12 1 6 13
M  V30 13 1 7 8
M  V30 14 1 7 9
M  V30 15 1 7 14
M  V30 16 1 9 15
M  V30 END BOND
M  V30 END CTAB
M  END
>  <ID>
669
$$$$
Structure_670
Score 	 12.0, smilesprid 	smiles	 smilestrue 	smiles	 similartanimoto 	0	 similardice 	0

   15   16  0  0  0  0            999 V3000
M  V30 BEGIN CTAB
M  V30 COUNTS 15 16 0 0 0
M  V30 BEGIN ATOM
M  V30 1 C -2.5391 -0.1953 0.0000 0
M  V30 2 C -1.7578 -1.3672 0.0000 0
M  V30 3 C -1.7578 0.9766 0.0000 0
M  V30 4 C -0.3906 -0.7812 0.0000 0
M  V30 5 C -0.3906 0.5859 0.0000 0
M  V30 6 C 0.7812 1.1719 0.0000 0
M  V30 7 C 1.9531 -0.7812 0.0000 0
M  V30 8 N 0.7812 -1.5625 0.0000 0
M  V30 9 N 1.9531 0.3906 0.0000 0
M  V30 10 H -3.5156 -0.1953 0.0000 0
M  V30 11 H -2.1484 2.1484 0.0000 0
M  V30 12 H -1.9531 -2.3438 0.0000 0
M  V30 13 H 0.9766 2.3438 0.0000 0
M  V30 14 H 2.9297 -1.3672 0.0000 0
M  V30 15 H 2.7344 0.9766 0.0000 0
M  V30 END ATOM
M  V30 BEGIN BOND
M  V30 1 1 1 2
M  V30 2 2 1 3
M  V30 3 1 1 10
M  V30 4 1 2 4
M  V30 5 1 2 12
M  V30 6 3 3 5
M  V30 7 1 3 11
M  V30 8 3 4 5
M  V30 9 1 4 8
M  V30 10 3 5 6
M  V30 11 1 6 9
M  V30 12 1 6 13
M  V30 13 1 7 8
M  V30 14 1 7 9
M  V30 15 1 7 14
M  V30 16 1 9 15
M  V30 END BOND
M  V30 END CTAB
M  END
>  <ID>
670
$$$$
Structure_671
Score 	 12.0, smilesprid 	smiles	 smilestrue 	smiles	 similartanimoto 	0	 similardice 	0

   15   16  0  0  0  0            999 V3000
M  V30 BEGIN CTAB
M  V30 COUNTS 15 16 0 0 0
M  V30 BEGIN ATOM
M  V30 1 C -2.5391 -0.1953 0.0000 0
M  V30 2 C -1.7578 -1.3672 0.0000 0
M  V30 3 C -1.7578 0.9766 0.0000 0
M  V30 4 C -0.3906 -0.7812 0.0000 0
M  V30 5 C -0.3906 0.5859 0.0000 0
M  V30 6 C 0.7812 1.1719 0.0000 0
M  V30 7 C 1.9531 -0.7812 0.0000 0
M  V30 8 N 0.7812 -1.5625 0.0000 0
M  V30 9 N 1.9531 0.3906 0.0000 0
M  V30 10 H -3.5156 -0.1953 0.0000 0
M  V30 11 H -2.1484 2.1484 0.0000 0
M  V30 12 H -1.9531 -2.3438 0.0000 0
M  V30 13 H 0.9766 2.3438 0.0000 0
M  V30 14 H 2.9297 -1.3672 0.0000 0
M  V30 15 H 2.7344 0.9766 0.0000 0
M  V30 END ATOM
M  V30 BEGIN BOND
M  V30 1 2 1 2
M  V30 2 2 1 3
M  V30 3 1 1 10
M  V30 4 1 2 4
M  V30 5 1 2 12
M  V30 6 3 3 5
M  V30 7 1 3 11
M  V30 8 3 4 5
M  V30 9 1 4 8
M  V30 10 3 5 6
M  V30 11 1 6 9
M  V30 12 1 6 13
M  V30 13 1 7 8
M  V30 14 1 7 9
M  V30 15 1 7 14
M  V30 16 1 9 15
M  V30 END BOND
M  V30 END CTAB
M  END
>  <ID>
671
$$$$
Structure_672
Score 	 14.0, smilesprid 	smiles	 smilestrue 	smiles	 similartanimoto 	0	 similardice 	0

   15   16  0  0  0  0            999 V3000
M  V30 BEGIN CTAB
M  V30 COUNTS 15 16 0 0 0
M  V30 BEGIN ATOM
M  V30 1 C -2.5391 -0.1953 0.0000 0
M  V30 2 C -1.7578 -1.3672 0.0000 0
M  V30 3 C -1.7578 0.9766 0.0000 0
M  V30 4 C -0.3906 -0.7812 0.0000 0
M  V30 5 C -0.3906 0.5859 0.0000 0
M  V30 6 C 0.7812 1.1719 0.0000 0
M  V30 7 C 1.9531 -0.7812 0.0000 0
M  V30 8 N 0.7812 -1.5625 0.0000 0
M  V30 9 N 1.9531 0.3906 0.0000 0
M  V30 10 H -3.5156 -0.1953 0.0000 0
M  V30 11 H -2.1484 2.1484 0.0000 0
M  V30 12 H -1.9531 -2.3438 0.0000 0
M  V30 13 H 0.9766 2.3438 0.0000 0
M  V30 14 H 2.9297 -1.3672 0.0000 0
M  V30 15 H 2.7344 0.9766 0.0000 0
M  V30 END ATOM
M  V30 BEGIN BOND
M  V30 1 3 1 2
M  V30 2 2 1 3
M  V30 3 1 1 10
M  V30 4 1 2 4
M  V30 5 1 2 12
M  V30 6 3 3 5
M  V30 7 1 3 11
M  V30 8 3 4 5
M  V30 9 1 4 8
M  V30 10 3 5 6
M  V30 11 1 6 9
M  V30 12 1 6 13
M  V30 13 1 7 8
M  V30 14 1 7 9
M  V30 15 1 7 14
M  V30 16 1 9 15
M  V30 END BOND
M  V30 END CTAB
M  END
>  <ID>
672
$$$$
Structure_673
Score 	 14.0, smilesprid 	smiles	 smilestrue 	smiles	 similartanimoto 	0	 similardice 	0

   15   16  0  0  0  0            999 V3000
M  V30 BEGIN CTAB
M  V30 COUNTS 15 16 0 0 0
M  V30 BEGIN ATOM
M  V30 1 C -2.5391 -0.1953 0.0000 0
M  V30 2 C -1.7578 -1.3672 0.0000 0
M  V30 3 C -1.7578 0.9766 0.0000 0
M  V30 4 C -0.3906 -0.7812 0.0000 0
M  V30 5 C -0.3906 0.5859 0.0000 0
M  V30 6 C 0.7812 1.1719 0.0000 0
M  V30 7 C 1.9531 -0.7812 0.0000 0
M  V30 8 N 0.7812 -1.5625 0.0000 0
M  V30 9 N 1.9531 0.3906 0.0000 0
M  V30 10 H -3.5156 -0.1953 0.0000 0
M  V30 11 H -2.1484 2.1484 0.0000 0
M  V30 12 H -1.9531 -2.3438 0.0000 0
M  V30 13 H 0.9766 2.3438 0.0000 0
M  V30 14 H 2.9297 -1.3672 0.0000 0
M  V30 15 H 2.7344 0.9766 0.0000 0
M  V30 END ATOM
M  V30 BEGIN BOND
M  V30 1 1 1 2
M  V30 2 3 1 3
M  V30 3 1 1 10
M  V30 4 1 2 4
M  V30 5 1 2 12
M  V30 6 3 3 5
M  V30 7 1 3 11
M  V30 8 3 4 5
M  V30 9 1 4 8
M  V30 10 3 5 6
M  V30 11 1 6 9
M  V30 12 1 6 13
M  V30 13 1 7 8
M  V30 14 1 7 9
M  V30 15 1 7 14
M  V30 16 1 9 15
M  V30 END BOND
M  V30 END CTAB
M  END
>  <ID>
673
$$$$
Structure_674
Score 	 14.0, smilesprid 	smiles	 smilestrue 	smiles	 similartanimoto 	0	 similardice 	0

   15   16  0  0  0  0            999 V3000
M  V30 BEGIN CTAB
M  V30 COUNTS 15 16 0 0 0
M  V30 BEGIN ATOM
M  V30 1 C -2.5391 -0.1953 0.0000 0
M  V30 2 C -1.7578 -1.3672 0.0000 0
M  V30 3 C -1.7578 0.9766 0.0000 0
M  V30 4 C -0.3906 -0.7812 0.0000 0
M  V30 5 C -0.3906 0.5859 0.0000 0
M  V30 6 C 0.7812 1.1719 0.0000 0
M  V30 7 C 1.9531 -0.7812 0.0000 0
M  V30 8 N 0.7812 -1.5625 0.0000 0
M  V30 9 N 1.9531 0.3906 0.0000 0
M  V30 10 H -3.5156 -0.1953 0.0000 0
M  V30 11 H -2.1484 2.1484 0.0000 0
M  V30 12 H -1.9531 -2.3438 0.0000 0
M  V30 13 H 0.9766 2.3438 0.0000 0
M  V30 14 H 2.9297 -1.3672 0.0000 0
M  V30 15 H 2.7344 0.9766 0.0000 0
M  V30 END ATOM
M  V30 BEGIN BOND
M  V30 1 2 1 2
M  V30 2 3 1 3
M  V30 3 1 1 10
M  V30 4 1 2 4
M  V30 5 1 2 12
M  V30 6 3 3 5
M  V30 7 1 3 11
M  V30 8 3 4 5
M  V30 9 1 4 8
M  V30 10 3 5 6
M  V30 11 1 6 9
M  V30 12 1 6 13
M  V30 13 1 7 8
M  V30 14 1 7 9
M  V30 15 1 7 14
M  V30 16 1 9 15
M  V30 END BOND
M  V30 END CTAB
M  END
>  <ID>
674
$$$$
Structure_675
Score 	 16.0, smilesprid 	smiles	 smilestrue 	smiles	 similartanimoto 	0	 similardice 	0

   15   16  0  0  0  0            999 V3000
M  V30 BEGIN CTAB
M  V30 COUNTS 15 16 0 0 0
M  V30 BEGIN ATOM
M  V30 1 C -2.5391 -0.1953 0.0000 0
M  V30 2 C -1.7578 -1.3672 0.0000 0
M  V30 3 C -1.7578 0.9766 0.0000 0
M  V30 4 C -0.3906 -0.7812 0.0000 0
M  V30 5 C -0.3906 0.5859 0.0000 0
M  V30 6 C 0.7812 1.1719 0.0000 0
M  V30 7 C 1.9531 -0.7812 0.0000 0
M  V30 8 N 0.7812 -1.5625 0.0000 0
M  V30 9 N 1.9531 0.3906 0.0000 0
M  V30 10 H -3.5156 -0.1953 0.0000 0
M  V30 11 H -2.1484 2.1484 0.0000 0
M  V30 12 H -1.9531 -2.3438 0.0000 0
M  V30 13 H 0.9766 2.3438 0.0000 0
M  V30 14 H 2.9297 -1.3672 0.0000 0
M  V30 15 H 2.7344 0.9766 0.0000 0
M  V30 END ATOM
M  V30 BEGIN BOND
M  V30 1 3 1 2
M  V30 2 3 1 3
M  V30 3 1 1 10
M  V30 4 1 2 4
M  V30 5 1 2 12
M  V30 6 3 3 5
M  V30 7 1 3 11
M  V30 8 3 4 5
M  V30 9 1 4 8
M  V30 10 3 5 6
M  V30 11 1 6 9
M  V30 12 1 6 13
M  V30 13 1 7 8
M  V30 14 1 7 9
M  V30 15 1 7 14
M  V30 16 1 9 15
M  V30 END BOND
M  V30 END CTAB
M  END
>  <ID>
675
$$$$
Structure_676
Score 	 10.0, smilesprid 	smiles	 smilestrue 	smiles	 similartanimoto 	0	 similardice 	0

   15   16  0  0  0  0            999 V3000
M  V30 BEGIN CTAB
M  V30 COUNTS 15 16 0 0 0
M  V30 BEGIN ATOM
M  V30 1 C -2.5391 -0.1953 0.0000 0
M  V30 2 C -1.7578 -1.3672 0.0000 0
M  V30 3 C -1.7578 0.9766 0.0000 0
M  V30 4 C -0.3906 -0.7812 0.0000 0
M  V30 5 C -0.3906 0.5859 0.0000 0
M  V30 6 C 0.7812 1.1719 0.0000 0
M  V30 7 C 1.9531 -0.7812 0.0000 0
M  V30 8 N 0.7812 -1.5625 0.0000 0
M  V30 9 N 1.9531 0.3906 0.0000 0
M  V30 10 H -3.5156 -0.1953 0.0000 0
M  V30 11 H -2.1484 2.1484 0.0000 0
M  V30 12 H -1.9531 -2.3438 0.0000 0
M  V30 13 H 0.9766 2.3438 0.0000 0
M  V30 14 H 2.9297 -1.3672 0.0000 0
M  V30 15 H 2.7344 0.9766 0.0000 0
M  V30 END ATOM
M  V30 BEGIN BOND
M  V30 1 1 1 2
M  V30 2 1 1 3
M  V30 3 1 1 10
M  V30 4 2 2 4
M  V30 5 1 2 12
M  V30 6 1 3 5
M  V30 7 1 3 11
M  V30 8 3 4 5
M  V30 9 1 4 8
M  V30 10 3 5 6
M  V30 11 1 6 9
M  V30 12 1 6 13
M  V30 13 1 7 8
M  V30 14 1 7 9
M  V30 15 1 7 14
M  V30 16 1 9 15
M  V30 END BOND
M  V30 END CTAB
M  END
>  <ID>
676
$$$$
Structure_677
Score 	 10.0, smilesprid 	smiles	 smilestrue 	smiles	 similartanimoto 	0	 similardice 	0

   15   16  0  0  0  0            999 V3000
M  V30 BEGIN CTAB
M  V30 COUNTS 15 16 0 0 0
M  V30 BEGIN ATOM
M  V30 1 C -2.5391 -0.1953 0.0000 0
M  V30 2 C -1.7578 -1.3672 0.0000 0
M  V30 3 C -1.7578 0.9766 0.0000 0
M  V30 4 C -0.3906 -0.7812 0.0000 0
M  V30 5 C -0.3906 0.5859 0.0000 0
M  V30 6 C 0.7812 1.1719 0.0000 0
M  V30 7 C 1.9531 -0.7812 0.0000 0
M  V30 8 N 0.7812 -1.5625 0.0000 0
M  V30 9 N 1.9531 0.3906 0.0000 0
M  V30 10 H -3.5156 -0.1953 0.0000 0
M  V30 11 H -2.1484 2.1484 0.0000 0
M  V30 12 H -1.9531 -2.3438 0.0000 0
M  V30 13 H 0.9766 2.3438 0.0000 0
M  V30 14 H 2.9297 -1.3672 0.0000 0
M  V30 15 H 2.7344 0.9766 0.0000 0
M  V30 END ATOM
M  V30 BEGIN BOND
M  V30 1 2 1 2
M  V30 2 1 1 3
M  V30 3 1 1 10
M  V30 4 2 2 4
M  V30 5 1 2 12
M  V30 6 1 3 5
M  V30 7 1 3 11
M  V30 8 3 4 5
M  V30 9 1 4 8
M  V30 10 3 5 6
M  V30 11 1 6 9
M  V30 12 1 6 13
M  V30 13 1 7 8
M  V30 14 1 7 9
M  V30 15 1 7 14
M  V30 16 1 9 15
M  V30 END BOND
M  V30 END CTAB
M  END
>  <ID>
677
$$$$
Structure_678
Score 	 12.0, smilesprid 	smiles	 smilestrue 	smiles	 similartanimoto 	0	 similardice 	0

   15   16  0  0  0  0            999 V3000
M  V30 BEGIN CTAB
M  V30 COUNTS 15 16 0 0 0
M  V30 BEGIN ATOM
M  V30 1 C -2.5391 -0.1953 0.0000 0
M  V30 2 C -1.7578 -1.3672 0.0000 0
M  V30 3 C -1.7578 0.9766 0.0000 0
M  V30 4 C -0.3906 -0.7812 0.0000 0
M  V30 5 C -0.3906 0.5859 0.0000 0
M  V30 6 C 0.7812 1.1719 0.0000 0
M  V30 7 C 1.9531 -0.7812 0.0000 0
M  V30 8 N 0.7812 -1.5625 0.0000 0
M  V30 9 N 1.9531 0.3906 0.0000 0
M  V30 10 H -3.5156 -0.1953 0.0000 0
M  V30 11 H -2.1484 2.1484 0.0000 0
M  V30 12 H -1.9531 -2.3438 0.0000 0
M  V30 13 H 0.9766 2.3438 0.0000 0
M  V30 14 H 2.9297 -1.3672 0.0000 0
M  V30 15 H 2.7344 0.9766 0.0000 0
M  V30 END ATOM
M  V30 BEGIN BOND
M  V30 1 3 1 2
M  V30 2 1 1 3
M  V30 3 1 1 10
M  V30 4 2 2 4
M  V30 5 1 2 12
M  V30 6 1 3 5
M  V30 7 1 3 11
M  V30 8 3 4 5
M  V30 9 1 4 8
M  V30 10 3 5 6
M  V30 11 1 6 9
M  V30 12 1 6 13
M  V30 13 1 7 8
M  V30 14 1 7 9
M  V30 15 1 7 14
M  V30 16 1 9 15
M  V30 END BOND
M  V30 END CTAB
M  END
>  <ID>
678
$$$$
Structure_679
Score 	 8.0, smilesprid 	smiles	 smilestrue 	smiles	 similartanimoto 	0	 similardice 	0

   15   16  0  0  0  0            999 V3000
M  V30 BEGIN CTAB
M  V30 COUNTS 15 16 0 0 0
M  V30 BEGIN ATOM
M  V30 1 C -2.5391 -0.1953 0.0000 0
M  V30 2 C -1.7578 -1.3672 0.0000 0
M  V30 3 C -1.7578 0.9766 0.0000 0
M  V30 4 C -0.3906 -0.7812 0.0000 0
M  V30 5 C -0.3906 0.5859 0.0000 0
M  V30 6 C 0.7812 1.1719 0.0000 0
M  V30 7 C 1.9531 -0.7812 0.0000 0
M  V30 8 N 0.7812 -1.5625 0.0000 0
M  V30 9 N 1.9531 0.3906 0.0000 0
M  V30 10 H -3.5156 -0.1953 0.0000 0
M  V30 11 H -2.1484 2.1484 0.0000 0
M  V30 12 H -1.9531 -2.3438 0.0000 0
M  V30 13 H 0.9766 2.3438 0.0000 0
M  V30 14 H 2.9297 -1.3672 0.0000 0
M  V30 15 H 2.7344 0.9766 0.0000 0
M  V30 END ATOM
M  V30 BEGIN BOND
M  V30 1 1 1 2
M  V30 2 2 1 3
M  V30 3 1 1 10
M  V30 4 2 2 4
M  V30 5 1 2 12
M  V30 6 1 3 5
M  V30 7 1 3 11
M  V30 8 3 4 5
M  V30 9 1 4 8
M  V30 10 3 5 6
M  V30 11 1 6 9
M  V30 12 1 6 13
M  V30 13 1 7 8
M  V30 14 1 7 9
M  V30 15 1 7 14
M  V30 16 1 9 15
M  V30 END BOND
M  V30 END CTAB
M  END
>  <ID>
679
$$$$
Structure_680
Score 	 10.0, smilesprid 	smiles	 smilestrue 	smiles	 similartanimoto 	0	 similardice 	0

   15   16  0  0  0  0            999 V3000
M  V30 BEGIN CTAB
M  V30 COUNTS 15 16 0 0 0
M  V30 BEGIN ATOM
M  V30 1 C -2.5391 -0.1953 0.0000 0
M  V30 2 C -1.7578 -1.3672 0.0000 0
M  V30 3 C -1.7578 0.9766 0.0000 0
M  V30 4 C -0.3906 -0.7812 0.0000 0
M  V30 5 C -0.3906 0.5859 0.0000 0
M  V30 6 C 0.7812 1.1719 0.0000 0
M  V30 7 C 1.9531 -0.7812 0.0000 0
M  V30 8 N 0.7812 -1.5625 0.0000 0
M  V30 9 N 1.9531 0.3906 0.0000 0
M  V30 10 H -3.5156 -0.1953 0.0000 0
M  V30 11 H -2.1484 2.1484 0.0000 0
M  V30 12 H -1.9531 -2.3438 0.0000 0
M  V30 13 H 0.9766 2.3438 0.0000 0
M  V30 14 H 2.9297 -1.3672 0.0000 0
M  V30 15 H 2.7344 0.9766 0.0000 0
M  V30 END ATOM
M  V30 BEGIN BOND
M  V30 1 2 1 2
M  V30 2 2 1 3
M  V30 3 1 1 10
M  V30 4 2 2 4
M  V30 5 1 2 12
M  V30 6 1 3 5
M  V30 7 1 3 11
M  V30 8 3 4 5
M  V30 9 1 4 8
M  V30 10 3 5 6
M  V30 11 1 6 9
M  V30 12 1 6 13
M  V30 13 1 7 8
M  V30 14 1 7 9
M  V30 15 1 7 14
M  V30 16 1 9 15
M  V30 END BOND
M  V30 END CTAB
M  END
>  <ID>
680
$$$$
Structure_681
Score 	 12.0, smilesprid 	smiles	 smilestrue 	smiles	 similartanimoto 	0	 similardice 	0

   15   16  0  0  0  0            999 V3000
M  V30 BEGIN CTAB
M  V30 COUNTS 15 16 0 0 0
M  V30 BEGIN ATOM
M  V30 1 C -2.5391 -0.1953 0.0000 0
M  V30 2 C -1.7578 -1.3672 0.0000 0
M  V30 3 C -1.7578 0.9766 0.0000 0
M  V30 4 C -0.3906 -0.7812 0.0000 0
M  V30 5 C -0.3906 0.5859 0.0000 0
M  V30 6 C 0.7812 1.1719 0.0000 0
M  V30 7 C 1.9531 -0.7812 0.0000 0
M  V30 8 N 0.7812 -1.5625 0.0000 0
M  V30 9 N 1.9531 0.3906 0.0000 0
M  V30 10 H -3.5156 -0.1953 0.0000 0
M  V30 11 H -2.1484 2.1484 0.0000 0
M  V30 12 H -1.9531 -2.3438 0.0000 0
M  V30 13 H 0.9766 2.3438 0.0000 0
M  V30 14 H 2.9297 -1.3672 0.0000 0
M  V30 15 H 2.7344 0.9766 0.0000 0
M  V30 END ATOM
M  V30 BEGIN BOND
M  V30 1 3 1 2
M  V30 2 2 1 3
M  V30 3 1 1 10
M  V30 4 2 2 4
M  V30 5 1 2 12
M  V30 6 1 3 5
M  V30 7 1 3 11
M  V30 8 3 4 5
M  V30 9 1 4 8
M  V30 10 3 5 6
M  V30 11 1 6 9
M  V30 12 1 6 13
M  V30 13 1 7 8
M  V30 14 1 7 9
M  V30 15 1 7 14
M  V30 16 1 9 15
M  V30 END BOND
M  V30 END CTAB
M  END
>  <ID>
681
$$$$
Structure_682
Score 	 10.0, smilesprid 	smiles	 smilestrue 	smiles	 similartanimoto 	0	 similardice 	0

   15   16  0  0  0  0            999 V3000
M  V30 BEGIN CTAB
M  V30 COUNTS 15 16 0 0 0
M  V30 BEGIN ATOM
M  V30 1 C -2.5391 -0.1953 0.0000 0
M  V30 2 C -1.7578 -1.3672 0.0000 0
M  V30 3 C -1.7578 0.9766 0.0000 0
M  V30 4 C -0.3906 -0.7812 0.0000 0
M  V30 5 C -0.3906 0.5859 0.0000 0
M  V30 6 C 0.7812 1.1719 0.0000 0
M  V30 7 C 1.9531 -0.7812 0.0000 0
M  V30 8 N 0.7812 -1.5625 0.0000 0
M  V30 9 N 1.9531 0.3906 0.0000 0
M  V30 10 H -3.5156 -0.1953 0.0000 0
M  V30 11 H -2.1484 2.1484 0.0000 0
M  V30 12 H -1.9531 -2.3438 0.0000 0
M  V30 13 H 0.9766 2.3438 0.0000 0
M  V30 14 H 2.9297 -1.3672 0.0000 0
M  V30 15 H 2.7344 0.9766 0.0000 0
M  V30 END ATOM
M  V30 BEGIN BOND
M  V30 1 1 1 2
M  V30 2 3 1 3
M  V30 3 1 1 10
M  V30 4 2 2 4
M  V30 5 1 2 12
M  V30 6 1 3 5
M  V30 7 1 3 11
M  V30 8 3 4 5
M  V30 9 1 4 8
M  V30 10 3 5 6
M  V30 11 1 6 9
M  V30 12 1 6 13
M  V30 13 1 7 8
M  V30 14 1 7 9
M  V30 15 1 7 14
M  V30 16 1 9 15
M  V30 END BOND
M  V30 END CTAB
M  END
>  <ID>
682
$$$$
Structure_683
Score 	 12.0, smilesprid 	smiles	 smilestrue 	smiles	 similartanimoto 	0	 similardice 	0

   15   16  0  0  0  0            999 V3000
M  V30 BEGIN CTAB
M  V30 COUNTS 15 16 0 0 0
M  V30 BEGIN ATOM
M  V30 1 C -2.5391 -0.1953 0.0000 0
M  V30 2 C -1.7578 -1.3672 0.0000 0
M  V30 3 C -1.7578 0.9766 0.0000 0
M  V30 4 C -0.3906 -0.7812 0.0000 0
M  V30 5 C -0.3906 0.5859 0.0000 0
M  V30 6 C 0.7812 1.1719 0.0000 0
M  V30 7 C 1.9531 -0.7812 0.0000 0
M  V30 8 N 0.7812 -1.5625 0.0000 0
M  V30 9 N 1.9531 0.3906 0.0000 0
M  V30 10 H -3.5156 -0.1953 0.0000 0
M  V30 11 H -2.1484 2.1484 0.0000 0
M  V30 12 H -1.9531 -2.3438 0.0000 0
M  V30 13 H 0.9766 2.3438 0.0000 0
M  V30 14 H 2.9297 -1.3672 0.0000 0
M  V30 15 H 2.7344 0.9766 0.0000 0
M  V30 END ATOM
M  V30 BEGIN BOND
M  V30 1 2 1 2
M  V30 2 3 1 3
M  V30 3 1 1 10
M  V30 4 2 2 4
M  V30 5 1 2 12
M  V30 6 1 3 5
M  V30 7 1 3 11
M  V30 8 3 4 5
M  V30 9 1 4 8
M  V30 10 3 5 6
M  V30 11 1 6 9
M  V30 12 1 6 13
M  V30 13 1 7 8
M  V30 14 1 7 9
M  V30 15 1 7 14
M  V30 16 1 9 15
M  V30 END BOND
M  V30 END CTAB
M  END
>  <ID>
683
$$$$
Structure_684
Score 	 14.0, smilesprid 	smiles	 smilestrue 	smiles	 similartanimoto 	0	 similardice 	0

   15   16  0  0  0  0            999 V3000
M  V30 BEGIN CTAB
M  V30 COUNTS 15 16 0 0 0
M  V30 BEGIN ATOM
M  V30 1 C -2.5391 -0.1953 0.0000 0
M  V30 2 C -1.7578 -1.3672 0.0000 0
M  V30 3 C -1.7578 0.9766 0.0000 0
M  V30 4 C -0.3906 -0.7812 0.0000 0
M  V30 5 C -0.3906 0.5859 0.0000 0
M  V30 6 C 0.7812 1.1719 0.0000 0
M  V30 7 C 1.9531 -0.7812 0.0000 0
M  V30 8 N 0.7812 -1.5625 0.0000 0
M  V30 9 N 1.9531 0.3906 0.0000 0
M  V30 10 H -3.5156 -0.1953 0.0000 0
M  V30 11 H -2.1484 2.1484 0.0000 0
M  V30 12 H -1.9531 -2.3438 0.0000 0
M  V30 13 H 0.9766 2.3438 0.0000 0
M  V30 14 H 2.9297 -1.3672 0.0000 0
M  V30 15 H 2.7344 0.9766 0.0000 0
M  V30 END ATOM
M  V30 BEGIN BOND
M  V30 1 3 1 2
M  V30 2 3 1 3
M  V30 3 1 1 10
M  V30 4 2 2 4
M  V30 5 1 2 12
M  V30 6 1 3 5
M  V30 7 1 3 11
M  V30 8 3 4 5
M  V30 9 1 4 8
M  V30 10 3 5 6
M  V30 11 1 6 9
M  V30 12 1 6 13
M  V30 13 1 7 8
M  V30 14 1 7 9
M  V30 15 1 7 14
M  V30 16 1 9 15
M  V30 END BOND
M  V30 END CTAB
M  END
>  <ID>
684
$$$$
Structure_685
Score 	 10.0, smilesprid 	smiles	 smilestrue 	smiles	 similartanimoto 	0	 similardice 	0

   15   16  0  0  0  0            999 V3000
M  V30 BEGIN CTAB
M  V30 COUNTS 15 16 0 0 0
M  V30 BEGIN ATOM
M  V30 1 C -2.5391 -0.1953 0.0000 0
M  V30 2 C -1.7578 -1.3672 0.0000 0
M  V30 3 C -1.7578 0.9766 0.0000 0
M  V30 4 C -0.3906 -0.7812 0.0000 0
M  V30 5 C -0.3906 0.5859 0.0000 0
M  V30 6 C 0.7812 1.1719 0.0000 0
M  V30 7 C 1.9531 -0.7812 0.0000 0
M  V30 8 N 0.7812 -1.5625 0.0000 0
M  V30 9 N 1.9531 0.3906 0.0000 0
M  V30 10 H -3.5156 -0.1953 0.0000 0
M  V30 11 H -2.1484 2.1484 0.0000 0
M  V30 12 H -1.9531 -2.3438 0.0000 0
M  V30 13 H 0.9766 2.3438 0.0000 0
M  V30 14 H 2.9297 -1.3672 0.0000 0
M  V30 15 H 2.7344 0.9766 0.0000 0
M  V30 END ATOM
M  V30 BEGIN BOND
M  V30 1 1 1 2
M  V30 2 1 1 3
M  V30 3 1 1 10
M  V30 4 2 2 4
M  V30 5 1 2 12
M  V30 6 2 3 5
M  V30 7 1 3 11
M  V30 8 3 4 5
M  V30 9 1 4 8
M  V30 10 3 5 6
M  V30 11 1 6 9
M  V30 12 1 6 13
M  V30 13 1 7 8
M  V30 14 1 7 9
M  V30 15 1 7 14
M  V30 16 1 9 15
M  V30 END BOND
M  V30 END CTAB
M  END
>  <ID>
685
$$$$
Structure_686
Score 	 10.0, smilesprid 	smiles	 smilestrue 	smiles	 similartanimoto 	0	 similardice 	0

   15   16  0  0  0  0            999 V3000
M  V30 BEGIN CTAB
M  V30 COUNTS 15 16 0 0 0
M  V30 BEGIN ATOM
M  V30 1 C -2.5391 -0.1953 0.0000 0
M  V30 2 C -1.7578 -1.3672 0.0000 0
M  V30 3 C -1.7578 0.9766 0.0000 0
M  V30 4 C -0.3906 -0.7812 0.0000 0
M  V30 5 C -0.3906 0.5859 0.0000 0
M  V30 6 C 0.7812 1.1719 0.0000 0
M  V30 7 C 1.9531 -0.7812 0.0000 0
M  V30 8 N 0.7812 -1.5625 0.0000 0
M  V30 9 N 1.9531 0.3906 0.0000 0
M  V30 10 H -3.5156 -0.1953 0.0000 0
M  V30 11 H -2.1484 2.1484 0.0000 0
M  V30 12 H -1.9531 -2.3438 0.0000 0
M  V30 13 H 0.9766 2.3438 0.0000 0
M  V30 14 H 2.9297 -1.3672 0.0000 0
M  V30 15 H 2.7344 0.9766 0.0000 0
M  V30 END ATOM
M  V30 BEGIN BOND
M  V30 1 2 1 2
M  V30 2 1 1 3
M  V30 3 1 1 10
M  V30 4 2 2 4
M  V30 5 1 2 12
M  V30 6 2 3 5
M  V30 7 1 3 11
M  V30 8 3 4 5
M  V30 9 1 4 8
M  V30 10 3 5 6
M  V30 11 1 6 9
M  V30 12 1 6 13
M  V30 13 1 7 8
M  V30 14 1 7 9
M  V30 15 1 7 14
M  V30 16 1 9 15
M  V30 END BOND
M  V30 END CTAB
M  END
>  <ID>
686
$$$$
Structure_687
Score 	 12.0, smilesprid 	smiles	 smilestrue 	smiles	 similartanimoto 	0	 similardice 	0

   15   16  0  0  0  0            999 V3000
M  V30 BEGIN CTAB
M  V30 COUNTS 15 16 0 0 0
M  V30 BEGIN ATOM
M  V30 1 C -2.5391 -0.1953 0.0000 0
M  V30 2 C -1.7578 -1.3672 0.0000 0
M  V30 3 C -1.7578 0.9766 0.0000 0
M  V30 4 C -0.3906 -0.7812 0.0000 0
M  V30 5 C -0.3906 0.5859 0.0000 0
M  V30 6 C 0.7812 1.1719 0.0000 0
M  V30 7 C 1.9531 -0.7812 0.0000 0
M  V30 8 N 0.7812 -1.5625 0.0000 0
M  V30 9 N 1.9531 0.3906 0.0000 0
M  V30 10 H -3.5156 -0.1953 0.0000 0
M  V30 11 H -2.1484 2.1484 0.0000 0
M  V30 12 H -1.9531 -2.3438 0.0000 0
M  V30 13 H 0.9766 2.3438 0.0000 0
M  V30 14 H 2.9297 -1.3672 0.0000 0
M  V30 15 H 2.7344 0.9766 0.0000 0
M  V30 END ATOM
M  V30 BEGIN BOND
M  V30 1 3 1 2
M  V30 2 1 1 3
M  V30 3 1 1 10
M  V30 4 2 2 4
M  V30 5 1 2 12
M  V30 6 2 3 5
M  V30 7 1 3 11
M  V30 8 3 4 5
M  V30 9 1 4 8
M  V30 10 3 5 6
M  V30 11 1 6 9
M  V30 12 1 6 13
M  V30 13 1 7 8
M  V30 14 1 7 9
M  V30 15 1 7 14
M  V30 16 1 9 15
M  V30 END BOND
M  V30 END CTAB
M  END
>  <ID>
687
$$$$
Structure_688
Score 	 10.0, smilesprid 	smiles	 smilestrue 	smiles	 similartanimoto 	0	 similardice 	0

   15   16  0  0  0  0            999 V3000
M  V30 BEGIN CTAB
M  V30 COUNTS 15 16 0 0 0
M  V30 BEGIN ATOM
M  V30 1 C -2.5391 -0.1953 0.0000 0
M  V30 2 C -1.7578 -1.3672 0.0000 0
M  V30 3 C -1.7578 0.9766 0.0000 0
M  V30 4 C -0.3906 -0.7812 0.0000 0
M  V30 5 C -0.3906 0.5859 0.0000 0
M  V30 6 C 0.7812 1.1719 0.0000 0
M  V30 7 C 1.9531 -0.7812 0.0000 0
M  V30 8 N 0.7812 -1.5625 0.0000 0
M  V30 9 N 1.9531 0.3906 0.0000 0
M  V30 10 H -3.5156 -0.1953 0.0000 0
M  V30 11 H -2.1484 2.1484 0.0000 0
M  V30 12 H -1.9531 -2.3438 0.0000 0
M  V30 13 H 0.9766 2.3438 0.0000 0
M  V30 14 H 2.9297 -1.3672 0.0000 0
M  V30 15 H 2.7344 0.9766 0.0000 0
M  V30 END ATOM
M  V30 BEGIN BOND
M  V30 1 1 1 2
M  V30 2 2 1 3
M  V30 3 1 1 10
M  V30 4 2 2 4
M  V30 5 1 2 12
M  V30 6 2 3 5
M  V30 7 1 3 11
M  V30 8 3 4 5
M  V30 9 1 4 8
M  V30 10 3 5 6
M  V30 11 1 6 9
M  V30 12 1 6 13
M  V30 13 1 7 8
M  V30 14 1 7 9
M  V30 15 1 7 14
M  V30 16 1 9 15
M  V30 END BOND
M  V30 END CTAB
M  END
>  <ID>
688
$$$$
Structure_689
Score 	 12.0, smilesprid 	smiles	 smilestrue 	smiles	 similartanimoto 	0	 similardice 	0

   15   16  0  0  0  0            999 V3000
M  V30 BEGIN CTAB
M  V30 COUNTS 15 16 0 0 0
M  V30 BEGIN ATOM
M  V30 1 C -2.5391 -0.1953 0.0000 0
M  V30 2 C -1.7578 -1.3672 0.0000 0
M  V30 3 C -1.7578 0.9766 0.0000 0
M  V30 4 C -0.3906 -0.7812 0.0000 0
M  V30 5 C -0.3906 0.5859 0.0000 0
M  V30 6 C 0.7812 1.1719 0.0000 0
M  V30 7 C 1.9531 -0.7812 0.0000 0
M  V30 8 N 0.7812 -1.5625 0.0000 0
M  V30 9 N 1.9531 0.3906 0.0000 0
M  V30 10 H -3.5156 -0.1953 0.0000 0
M  V30 11 H -2.1484 2.1484 0.0000 0
M  V30 12 H -1.9531 -2.3438 0.0000 0
M  V30 13 H 0.9766 2.3438 0.0000 0
M  V30 14 H 2.9297 -1.3672 0.0000 0
M  V30 15 H 2.7344 0.9766 0.0000 0
M  V30 END ATOM
M  V30 BEGIN BOND
M  V30 1 2 1 2
M  V30 2 2 1 3
M  V30 3 1 1 10
M  V30 4 2 2 4
M  V30 5 1 2 12
M  V30 6 2 3 5
M  V30 7 1 3 11
M  V30 8 3 4 5
M  V30 9 1 4 8
M  V30 10 3 5 6
M  V30 11 1 6 9
M  V30 12 1 6 13
M  V30 13 1 7 8
M  V30 14 1 7 9
M  V30 15 1 7 14
M  V30 16 1 9 15
M  V30 END BOND
M  V30 END CTAB
M  END
>  <ID>
689
$$$$
Structure_690
Score 	 14.0, smilesprid 	smiles	 smilestrue 	smiles	 similartanimoto 	0	 similardice 	0

   15   16  0  0  0  0            999 V3000
M  V30 BEGIN CTAB
M  V30 COUNTS 15 16 0 0 0
M  V30 BEGIN ATOM
M  V30 1 C -2.5391 -0.1953 0.0000 0
M  V30 2 C -1.7578 -1.3672 0.0000 0
M  V30 3 C -1.7578 0.9766 0.0000 0
M  V30 4 C -0.3906 -0.7812 0.0000 0
M  V30 5 C -0.3906 0.5859 0.0000 0
M  V30 6 C 0.7812 1.1719 0.0000 0
M  V30 7 C 1.9531 -0.7812 0.0000 0
M  V30 8 N 0.7812 -1.5625 0.0000 0
M  V30 9 N 1.9531 0.3906 0.0000 0
M  V30 10 H -3.5156 -0.1953 0.0000 0
M  V30 11 H -2.1484 2.1484 0.0000 0
M  V30 12 H -1.9531 -2.3438 0.0000 0
M  V30 13 H 0.9766 2.3438 0.0000 0
M  V30 14 H 2.9297 -1.3672 0.0000 0
M  V30 15 H 2.7344 0.9766 0.0000 0
M  V30 END ATOM
M  V30 BEGIN BOND
M  V30 1 3 1 2
M  V30 2 2 1 3
M  V30 3 1 1 10
M  V30 4 2 2 4
M  V30 5 1 2 12
M  V30 6 2 3 5
M  V30 7 1 3 11
M  V30 8 3 4 5
M  V30 9 1 4 8
M  V30 10 3 5 6
M  V30 11 1 6 9
M  V30 12 1 6 13
M  V30 13 1 7 8
M  V30 14 1 7 9
M  V30 15 1 7 14
M  V30 16 1 9 15
M  V30 END BOND
M  V30 END CTAB
M  END
>  <ID>
690
$$$$
Structure_691
Score 	 12.0, smilesprid 	smiles	 smilestrue 	smiles	 similartanimoto 	0	 similardice 	0

   15   16  0  0  0  0            999 V3000
M  V30 BEGIN CTAB
M  V30 COUNTS 15 16 0 0 0
M  V30 BEGIN ATOM
M  V30 1 C -2.5391 -0.1953 0.0000 0
M  V30 2 C -1.7578 -1.3672 0.0000 0
M  V30 3 C -1.7578 0.9766 0.0000 0
M  V30 4 C -0.3906 -0.7812 0.0000 0
M  V30 5 C -0.3906 0.5859 0.0000 0
M  V30 6 C 0.7812 1.1719 0.0000 0
M  V30 7 C 1.9531 -0.7812 0.0000 0
M  V30 8 N 0.7812 -1.5625 0.0000 0
M  V30 9 N 1.9531 0.3906 0.0000 0
M  V30 10 H -3.5156 -0.1953 0.0000 0
M  V30 11 H -2.1484 2.1484 0.0000 0
M  V30 12 H -1.9531 -2.3438 0.0000 0
M  V30 13 H 0.9766 2.3438 0.0000 0
M  V30 14 H 2.9297 -1.3672 0.0000 0
M  V30 15 H 2.7344 0.9766 0.0000 0
M  V30 END ATOM
M  V30 BEGIN BOND
M  V30 1 1 1 2
M  V30 2 3 1 3
M  V30 3 1 1 10
M  V30 4 2 2 4
M  V30 5 1 2 12
M  V30 6 2 3 5
M  V30 7 1 3 11
M  V30 8 3 4 5
M  V30 9 1 4 8
M  V30 10 3 5 6
M  V30 11 1 6 9
M  V30 12 1 6 13
M  V30 13 1 7 8
M  V30 14 1 7 9
M  V30 15 1 7 14
M  V30 16 1 9 15
M  V30 END BOND
M  V30 END CTAB
M  END
>  <ID>
691
$$$$
Structure_692
Score 	 14.0, smilesprid 	smiles	 smilestrue 	smiles	 similartanimoto 	0	 similardice 	0

   15   16  0  0  0  0            999 V3000
M  V30 BEGIN CTAB
M  V30 COUNTS 15 16 0 0 0
M  V30 BEGIN ATOM
M  V30 1 C -2.5391 -0.1953 0.0000 0
M  V30 2 C -1.7578 -1.3672 0.0000 0
M  V30 3 C -1.7578 0.9766 0.0000 0
M  V30 4 C -0.3906 -0.7812 0.0000 0
M  V30 5 C -0.3906 0.5859 0.0000 0
M  V30 6 C 0.7812 1.1719 0.0000 0
M  V30 7 C 1.9531 -0.7812 0.0000 0
M  V30 8 N 0.7812 -1.5625 0.0000 0
M  V30 9 N 1.9531 0.3906 0.0000 0
M  V30 10 H -3.5156 -0.1953 0.0000 0
M  V30 11 H -2.1484 2.1484 0.0000 0
M  V30 12 H -1.9531 -2.3438 0.0000 0
M  V30 13 H 0.9766 2.3438 0.0000 0
M  V30 14 H 2.9297 -1.3672 0.0000 0
M  V30 15 H 2.7344 0.9766 0.0000 0
M  V30 END ATOM
M  V30 BEGIN BOND
M  V30 1 2 1 2
M  V30 2 3 1 3
M  V30 3 1 1 10
M  V30 4 2 2 4
M  V30 5 1 2 12
M  V30 6 2 3 5
M  V30 7 1 3 11
M  V30 8 3 4 5
M  V30 9 1 4 8
M  V30 10 3 5 6
M  V30 11 1 6 9
M  V30 12 1 6 13
M  V30 13 1 7 8
M  V30 14 1 7 9
M  V30 15 1 7 14
M  V30 16 1 9 15
M  V30 END BOND
M  V30 END CTAB
M  END
>  <ID>
692
$$$$
Structure_693
Score 	 16.0, smilesprid 	smiles	 smilestrue 	smiles	 similartanimoto 	0	 similardice 	0

   15   16  0  0  0  0            999 V3000
M  V30 BEGIN CTAB
M  V30 COUNTS 15 16 0 0 0
M  V30 BEGIN ATOM
M  V30 1 C -2.5391 -0.1953 0.0000 0
M  V30 2 C -1.7578 -1.3672 0.0000 0
M  V30 3 C -1.7578 0.9766 0.0000 0
M  V30 4 C -0.3906 -0.7812 0.0000 0
M  V30 5 C -0.3906 0.5859 0.0000 0
M  V30 6 C 0.7812 1.1719 0.0000 0
M  V30 7 C 1.9531 -0.7812 0.0000 0
M  V30 8 N 0.7812 -1.5625 0.0000 0
M  V30 9 N 1.9531 0.3906 0.0000 0
M  V30 10 H -3.5156 -0.1953 0.0000 0
M  V30 11 H -2.1484 2.1484 0.0000 0
M  V30 12 H -1.9531 -2.3438 0.0000 0
M  V30 13 H 0.9766 2.3438 0.0000 0
M  V30 14 H 2.9297 -1.3672 0.0000 0
M  V30 15 H 2.7344 0.9766 0.0000 0
M  V30 END ATOM
M  V30 BEGIN BOND
M  V30 1 3 1 2
M  V30 2 3 1 3
M  V30 3 1 1 10
M  V30 4 2 2 4
M  V30 5 1 2 12
M  V30 6 2 3 5
M  V30 7 1 3 11
M  V30 8 3 4 5
M  V30 9 1 4 8
M  V30 10 3 5 6
M  V30 11 1 6 9
M  V30 12 1 6 13
M  V30 13 1 7 8
M  V30 14 1 7 9
M  V30 15 1 7 14
M  V30 16 1 9 15
M  V30 END BOND
M  V30 END CTAB
M  END
>  <ID>
693
$$$$
Structure_694
Score 	 12.0, smilesprid 	smiles	 smilestrue 	smiles	 similartanimoto 	0	 similardice 	0

   15   16  0  0  0  0            999 V3000
M  V30 BEGIN CTAB
M  V30 COUNTS 15 16 0 0 0
M  V30 BEGIN ATOM
M  V30 1 C -2.5391 -0.1953 0.0000 0
M  V30 2 C -1.7578 -1.3672 0.0000 0
M  V30 3 C -1.7578 0.9766 0.0000 0
M  V30 4 C -0.3906 -0.7812 0.0000 0
M  V30 5 C -0.3906 0.5859 0.0000 0
M  V30 6 C 0.7812 1.1719 0.0000 0
M  V30 7 C 1.9531 -0.7812 0.0000 0
M  V30 8 N 0.7812 -1.5625 0.0000 0
M  V30 9 N 1.9531 0.3906 0.0000 0
M  V30 10 H -3.5156 -0.1953 0.0000 0
M  V30 11 H -2.1484 2.1484 0.0000 0
M  V30 12 H -1.9531 -2.3438 0.0000 0
M  V30 13 H 0.9766 2.3438 0.0000 0
M  V30 14 H 2.9297 -1.3672 0.0000 0
M  V30 15 H 2.7344 0.9766 0.0000 0
M  V30 END ATOM
M  V30 BEGIN BOND
M  V30 1 1 1 2
M  V30 2 1 1 3
M  V30 3 1 1 10
M  V30 4 2 2 4
M  V30 5 1 2 12
M  V30 6 3 3 5
M  V30 7 1 3 11
M  V30 8 3 4 5
M  V30 9 1 4 8
M  V30 10 3 5 6
M  V30 11 1 6 9
M  V30 12 1 6 13
M  V30 13 1 7 8
M  V30 14 1 7 9
M  V30 15 1 7 14
M  V30 16 1 9 15
M  V30 END BOND
M  V30 END CTAB
M  END
>  <ID>
694
$$$$
Structure_695
Score 	 12.0, smilesprid 	smiles	 smilestrue 	smiles	 similartanimoto 	0	 similardice 	0

   15   16  0  0  0  0            999 V3000
M  V30 BEGIN CTAB
M  V30 COUNTS 15 16 0 0 0
M  V30 BEGIN ATOM
M  V30 1 C -2.5391 -0.1953 0.0000 0
M  V30 2 C -1.7578 -1.3672 0.0000 0
M  V30 3 C -1.7578 0.9766 0.0000 0
M  V30 4 C -0.3906 -0.7812 0.0000 0
M  V30 5 C -0.3906 0.5859 0.0000 0
M  V30 6 C 0.7812 1.1719 0.0000 0
M  V30 7 C 1.9531 -0.7812 0.0000 0
M  V30 8 N 0.7812 -1.5625 0.0000 0
M  V30 9 N 1.9531 0.3906 0.0000 0
M  V30 10 H -3.5156 -0.1953 0.0000 0
M  V30 11 H -2.1484 2.1484 0.0000 0
M  V30 12 H -1.9531 -2.3438 0.0000 0
M  V30 13 H 0.9766 2.3438 0.0000 0
M  V30 14 H 2.9297 -1.3672 0.0000 0
M  V30 15 H 2.7344 0.9766 0.0000 0
M  V30 END ATOM
M  V30 BEGIN BOND
M  V30 1 2 1 2
M  V30 2 1 1 3
M  V30 3 1 1 10
M  V30 4 2 2 4
M  V30 5 1 2 12
M  V30 6 3 3 5
M  V30 7 1 3 11
M  V30 8 3 4 5
M  V30 9 1 4 8
M  V30 10 3 5 6
M  V30 11 1 6 9
M  V30 12 1 6 13
M  V30 13 1 7 8
M  V30 14 1 7 9
M  V30 15 1 7 14
M  V30 16 1 9 15
M  V30 END BOND
M  V30 END CTAB
M  END
>  <ID>
695
$$$$
Structure_696
Score 	 14.0, smilesprid 	smiles	 smilestrue 	smiles	 similartanimoto 	0	 similardice 	0

   15   16  0  0  0  0            999 V3000
M  V30 BEGIN CTAB
M  V30 COUNTS 15 16 0 0 0
M  V30 BEGIN ATOM
M  V30 1 C -2.5391 -0.1953 0.0000 0
M  V30 2 C -1.7578 -1.3672 0.0000 0
M  V30 3 C -1.7578 0.9766 0.0000 0
M  V30 4 C -0.3906 -0.7812 0.0000 0
M  V30 5 C -0.3906 0.5859 0.0000 0
M  V30 6 C 0.7812 1.1719 0.0000 0
M  V30 7 C 1.9531 -0.7812 0.0000 0
M  V30 8 N 0.7812 -1.5625 0.0000 0
M  V30 9 N 1.9531 0.3906 0.0000 0
M  V30 10 H -3.5156 -0.1953 0.0000 0
M  V30 11 H -2.1484 2.1484 0.0000 0
M  V30 12 H -1.9531 -2.3438 0.0000 0
M  V30 13 H 0.9766 2.3438 0.0000 0
M  V30 14 H 2.9297 -1.3672 0.0000 0
M  V30 15 H 2.7344 0.9766 0.0000 0
M  V30 END ATOM
M  V30 BEGIN BOND
M  V30 1 3 1 2
M  V30 2 1 1 3
M  V30 3 1 1 10
M  V30 4 2 2 4
M  V30 5 1 2 12
M  V30 6 3 3 5
M  V30 7 1 3 11
M  V30 8 3 4 5
M  V30 9 1 4 8
M  V30 10 3 5 6
M  V30 11 1 6 9
M  V30 12 1 6 13
M  V30 13 1 7 8
M  V30 14 1 7 9
M  V30 15 1 7 14
M  V30 16 1 9 15
M  V30 END BOND
M  V30 END CTAB
M  END
>  <ID>
696
$$$$
Structure_697
Score 	 12.0, smilesprid 	smiles	 smilestrue 	smiles	 similartanimoto 	0	 similardice 	0

   15   16  0  0  0  0            999 V3000
M  V30 BEGIN CTAB
M  V30 COUNTS 15 16 0 0 0
M  V30 BEGIN ATOM
M  V30 1 C -2.5391 -0.1953 0.0000 0
M  V30 2 C -1.7578 -1.3672 0.0000 0
M  V30 3 C -1.7578 0.9766 0.0000 0
M  V30 4 C -0.3906 -0.7812 0.0000 0
M  V30 5 C -0.3906 0.5859 0.0000 0
M  V30 6 C 0.7812 1.1719 0.0000 0
M  V30 7 C 1.9531 -0.7812 0.0000 0
M  V30 8 N 0.7812 -1.5625 0.0000 0
M  V30 9 N 1.9531 0.3906 0.0000 0
M  V30 10 H -3.5156 -0.1953 0.0000 0
M  V30 11 H -2.1484 2.1484 0.0000 0
M  V30 12 H -1.9531 -2.3438 0.0000 0
M  V30 13 H 0.9766 2.3438 0.0000 0
M  V30 14 H 2.9297 -1.3672 0.0000 0
M  V30 15 H 2.7344 0.9766 0.0000 0
M  V30 END ATOM
M  V30 BEGIN BOND
M  V30 1 1 1 2
M  V30 2 2 1 3
M  V30 3 1 1 10
M  V30 4 2 2 4
M  V30 5 1 2 12
M  V30 6 3 3 5
M  V30 7 1 3 11
M  V30 8 3 4 5
M  V30 9 1 4 8
M  V30 10 3 5 6
M  V30 11 1 6 9
M  V30 12 1 6 13
M  V30 13 1 7 8
M  V30 14 1 7 9
M  V30 15 1 7 14
M  V30 16 1 9 15
M  V30 END BOND
M  V30 END CTAB
M  END
>  <ID>
697
$$$$
Structure_698
Score 	 14.0, smilesprid 	smiles	 smilestrue 	smiles	 similartanimoto 	0	 similardice 	0

   15   16  0  0  0  0            999 V3000
M  V30 BEGIN CTAB
M  V30 COUNTS 15 16 0 0 0
M  V30 BEGIN ATOM
M  V30 1 C -2.5391 -0.1953 0.0000 0
M  V30 2 C -1.7578 -1.3672 0.0000 0
M  V30 3 C -1.7578 0.9766 0.0000 0
M  V30 4 C -0.3906 -0.7812 0.0000 0
M  V30 5 C -0.3906 0.5859 0.0000 0
M  V30 6 C 0.7812 1.1719 0.0000 0
M  V30 7 C 1.9531 -0.7812 0.0000 0
M  V30 8 N 0.7812 -1.5625 0.0000 0
M  V30 9 N 1.9531 0.3906 0.0000 0
M  V30 10 H -3.5156 -0.1953 0.0000 0
M  V30 11 H -2.1484 2.1484 0.0000 0
M  V30 12 H -1.9531 -2.3438 0.0000 0
M  V30 13 H 0.9766 2.3438 0.0000 0
M  V30 14 H 2.9297 -1.3672 0.0000 0
M  V30 15 H 2.7344 0.9766 0.0000 0
M  V30 END ATOM
M  V30 BEGIN BOND
M  V30 1 2 1 2
M  V30 2 2 1 3
M  V30 3 1 1 10
M  V30 4 2 2 4
M  V30 5 1 2 12
M  V30 6 3 3 5
M  V30 7 1 3 11
M  V30 8 3 4 5
M  V30 9 1 4 8
M  V30 10 3 5 6
M  V30 11 1 6 9
M  V30 12 1 6 13
M  V30 13 1 7 8
M  V30 14 1 7 9
M  V30 15 1 7 14
M  V30 16 1 9 15
M  V30 END BOND
M  V30 END CTAB
M  END
>  <ID>
698
$$$$
Structure_699
Score 	 16.0, smilesprid 	smiles	 smilestrue 	smiles	 similartanimoto 	0	 similardice 	0

   15   16  0  0  0  0            999 V3000
M  V30 BEGIN CTAB
M  V30 COUNTS 15 16 0 0 0
M  V30 BEGIN ATOM
M  V30 1 C -2.5391 -0.1953 0.0000 0
M  V30 2 C -1.7578 -1.3672 0.0000 0
M  V30 3 C -1.7578 0.9766 0.0000 0
M  V30 4 C -0.3906 -0.7812 0.0000 0
M  V30 5 C -0.3906 0.5859 0.0000 0
M  V30 6 C 0.7812 1.1719 0.0000 0
M  V30 7 C 1.9531 -0.7812 0.0000 0
M  V30 8 N 0.7812 -1.5625 0.0000 0
M  V30 9 N 1.9531 0.3906 0.0000 0
M  V30 10 H -3.5156 -0.1953 0.0000 0
M  V30 11 H -2.1484 2.1484 0.0000 0
M  V30 12 H -1.9531 -2.3438 0.0000 0
M  V30 13 H 0.9766 2.3438 0.0000 0
M  V30 14 H 2.9297 -1.3672 0.0000 0
M  V30 15 H 2.7344 0.9766 0.0000 0
M  V30 END ATOM
M  V30 BEGIN BOND
M  V30 1 3 1 2
M  V30 2 2 1 3
M  V30 3 1 1 10
M  V30 4 2 2 4
M  V30 5 1 2 12
M  V30 6 3 3 5
M  V30 7 1 3 11
M  V30 8 3 4 5
M  V30 9 1 4 8
M  V30 10 3 5 6
M  V30 11 1 6 9
M  V30 12 1 6 13
M  V30 13 1 7 8
M  V30 14 1 7 9
M  V30 15 1 7 14
M  V30 16 1 9 15
M  V30 END BOND
M  V30 END CTAB
M  END
>  <ID>
699
$$$$
Structure_700
Score 	 14.0, smilesprid 	smiles	 smilestrue 	smiles	 similartanimoto 	0	 similardice 	0

   15   16  0  0  0  0            999 V3000
M  V30 BEGIN CTAB
M  V30 COUNTS 15 16 0 0 0
M  V30 BEGIN ATOM
M  V30 1 C -2.5391 -0.1953 0.0000 0
M  V30 2 C -1.7578 -1.3672 0.0000 0
M  V30 3 C -1.7578 0.9766 0.0000 0
M  V30 4 C -0.3906 -0.7812 0.0000 0
M  V30 5 C -0.3906 0.5859 0.0000 0
M  V30 6 C 0.7812 1.1719 0.0000 0
M  V30 7 C 1.9531 -0.7812 0.0000 0
M  V30 8 N 0.7812 -1.5625 0.0000 0
M  V30 9 N 1.9531 0.3906 0.0000 0
M  V30 10 H -3.5156 -0.1953 0.0000 0
M  V30 11 H -2.1484 2.1484 0.0000 0
M  V30 12 H -1.9531 -2.3438 0.0000 0
M  V30 13 H 0.9766 2.3438 0.0000 0
M  V30 14 H 2.9297 -1.3672 0.0000 0
M  V30 15 H 2.7344 0.9766 0.0000 0
M  V30 END ATOM
M  V30 BEGIN BOND
M  V30 1 1 1 2
M  V30 2 3 1 3
M  V30 3 1 1 10
M  V30 4 2 2 4
M  V30 5 1 2 12
M  V30 6 3 3 5
M  V30 7 1 3 11
M  V30 8 3 4 5
M  V30 9 1 4 8
M  V30 10 3 5 6
M  V30 11 1 6 9
M  V30 12 1 6 13
M  V30 13 1 7 8
M  V30 14 1 7 9
M  V30 15 1 7 14
M  V30 16 1 9 15
M  V30 END BOND
M  V30 END CTAB
M  END
>  <ID>
700
$$$$
Structure_701
Score 	 16.0, smilesprid 	smiles	 smilestrue 	smiles	 similartanimoto 	0	 similardice 	0

   15   16  0  0  0  0            999 V3000
M  V30 BEGIN CTAB
M  V30 COUNTS 15 16 0 0 0
M  V30 BEGIN ATOM
M  V30 1 C -2.5391 -0.1953 0.0000 0
M  V30 2 C -1.7578 -1.3672 0.0000 0
M  V30 3 C -1.7578 0.9766 0.0000 0
M  V30 4 C -0.3906 -0.7812 0.0000 0
M  V30 5 C -0.3906 0.5859 0.0000 0
M  V30 6 C 0.7812 1.1719 0.0000 0
M  V30 7 C 1.9531 -0.7812 0.0000 0
M  V30 8 N 0.7812 -1.5625 0.0000 0
M  V30 9 N 1.9531 0.3906 0.0000 0
M  V30 10 H -3.5156 -0.1953 0.0000 0
M  V30 11 H -2.1484 2.1484 0.0000 0
M  V30 12 H -1.9531 -2.3438 0.0000 0
M  V30 13 H 0.9766 2.3438 0.0000 0
M  V30 14 H 2.9297 -1.3672 0.0000 0
M  V30 15 H 2.7344 0.9766 0.0000 0
M  V30 END ATOM
M  V30 BEGIN BOND
M  V30 1 2 1 2
M  V30 2 3 1 3
M  V30 3 1 1 10
M  V30 4 2 2 4
M  V30 5 1 2 12
M  V30 6 3 3 5
M  V30 7 1 3 11
M  V30 8 3 4 5
M  V30 9 1 4 8
M  V30 10 3 5 6
M  V30 11 1 6 9
M  V30 12 1 6 13
M  V30 13 1 7 8
M  V30 14 1 7 9
M  V30 15 1 7 14
M  V30 16 1 9 15
M  V30 END BOND
M  V30 END CTAB
M  END
>  <ID>
701
$$$$
Structure_702
Score 	 18.0, smilesprid 	smiles	 smilestrue 	smiles	 similartanimoto 	0	 similardice 	0

   15   16  0  0  0  0            999 V3000
M  V30 BEGIN CTAB
M  V30 COUNTS 15 16 0 0 0
M  V30 BEGIN ATOM
M  V30 1 C -2.5391 -0.1953 0.0000 0
M  V30 2 C -1.7578 -1.3672 0.0000 0
M  V30 3 C -1.7578 0.9766 0.0000 0
M  V30 4 C -0.3906 -0.7812 0.0000 0
M  V30 5 C -0.3906 0.5859 0.0000 0
M  V30 6 C 0.7812 1.1719 0.0000 0
M  V30 7 C 1.9531 -0.7812 0.0000 0
M  V30 8 N 0.7812 -1.5625 0.0000 0
M  V30 9 N 1.9531 0.3906 0.0000 0
M  V30 10 H -3.5156 -0.1953 0.0000 0
M  V30 11 H -2.1484 2.1484 0.0000 0
M  V30 12 H -1.9531 -2.3438 0.0000 0
M  V30 13 H 0.9766 2.3438 0.0000 0
M  V30 14 H 2.9297 -1.3672 0.0000 0
M  V30 15 H 2.7344 0.9766 0.0000 0
M  V30 END ATOM
M  V30 BEGIN BOND
M  V30 1 3 1 2
M  V30 2 3 1 3
M  V30 3 1 1 10
M  V30 4 2 2 4
M  V30 5 1 2 12
M  V30 6 3 3 5
M  V30 7 1 3 11
M  V30 8 3 4 5
M  V30 9 1 4 8
M  V30 10 3 5 6
M  V30 11 1 6 9
M  V30 12 1 6 13
M  V30 13 1 7 8
M  V30 14 1 7 9
M  V30 15 1 7 14
M  V30 16 1 9 15
M  V30 END BOND
M  V30 END CTAB
M  END
>  <ID>
702
$$$$
Structure_703
Score 	 12.0, smilesprid 	smiles	 smilestrue 	smiles	 similartanimoto 	0	 similardice 	0

   15   16  0  0  0  0            999 V3000
M  V30 BEGIN CTAB
M  V30 COUNTS 15 16 0 0 0
M  V30 BEGIN ATOM
M  V30 1 C -2.5391 -0.1953 0.0000 0
M  V30 2 C -1.7578 -1.3672 0.0000 0
M  V30 3 C -1.7578 0.9766 0.0000 0
M  V30 4 C -0.3906 -0.7812 0.0000 0
M  V30 5 C -0.3906 0.5859 0.0000 0
M  V30 6 C 0.7812 1.1719 0.0000 0
M  V30 7 C 1.9531 -0.7812 0.0000 0
M  V30 8 N 0.7812 -1.5625 0.0000 0
M  V30 9 N 1.9531 0.3906 0.0000 0
M  V30 10 H -3.5156 -0.1953 0.0000 0
M  V30 11 H -2.1484 2.1484 0.0000 0
M  V30 12 H -1.9531 -2.3438 0.0000 0
M  V30 13 H 0.9766 2.3438 0.0000 0
M  V30 14 H 2.9297 -1.3672 0.0000 0
M  V30 15 H 2.7344 0.9766 0.0000 0
M  V30 END ATOM
M  V30 BEGIN BOND
M  V30 1 1 1 2
M  V30 2 1 1 3
M  V30 3 1 1 10
M  V30 4 3 2 4
M  V30 5 1 2 12
M  V30 6 1 3 5
M  V30 7 1 3 11
M  V30 8 3 4 5
M  V30 9 1 4 8
M  V30 10 3 5 6
M  V30 11 1 6 9
M  V30 12 1 6 13
M  V30 13 1 7 8
M  V30 14 1 7 9
M  V30 15 1 7 14
M  V30 16 1 9 15
M  V30 END BOND
M  V30 END CTAB
M  END
>  <ID>
703
$$$$
Structure_704
Score 	 12.0, smilesprid 	smiles	 smilestrue 	smiles	 similartanimoto 	0	 similardice 	0

   15   16  0  0  0  0            999 V3000
M  V30 BEGIN CTAB
M  V30 COUNTS 15 16 0 0 0
M  V30 BEGIN ATOM
M  V30 1 C -2.5391 -0.1953 0.0000 0
M  V30 2 C -1.7578 -1.3672 0.0000 0
M  V30 3 C -1.7578 0.9766 0.0000 0
M  V30 4 C -0.3906 -0.7812 0.0000 0
M  V30 5 C -0.3906 0.5859 0.0000 0
M  V30 6 C 0.7812 1.1719 0.0000 0
M  V30 7 C 1.9531 -0.7812 0.0000 0
M  V30 8 N 0.7812 -1.5625 0.0000 0
M  V30 9 N 1.9531 0.3906 0.0000 0
M  V30 10 H -3.5156 -0.1953 0.0000 0
M  V30 11 H -2.1484 2.1484 0.0000 0
M  V30 12 H -1.9531 -2.3438 0.0000 0
M  V30 13 H 0.9766 2.3438 0.0000 0
M  V30 14 H 2.9297 -1.3672 0.0000 0
M  V30 15 H 2.7344 0.9766 0.0000 0
M  V30 END ATOM
M  V30 BEGIN BOND
M  V30 1 2 1 2
M  V30 2 1 1 3
M  V30 3 1 1 10
M  V30 4 3 2 4
M  V30 5 1 2 12
M  V30 6 1 3 5
M  V30 7 1 3 11
M  V30 8 3 4 5
M  V30 9 1 4 8
M  V30 10 3 5 6
M  V30 11 1 6 9
M  V30 12 1 6 13
M  V30 13 1 7 8
M  V30 14 1 7 9
M  V30 15 1 7 14
M  V30 16 1 9 15
M  V30 END BOND
M  V30 END CTAB
M  END
>  <ID>
704
$$$$
Structure_705
Score 	 14.0, smilesprid 	smiles	 smilestrue 	smiles	 similartanimoto 	0	 similardice 	0

   15   16  0  0  0  0            999 V3000
M  V30 BEGIN CTAB
M  V30 COUNTS 15 16 0 0 0
M  V30 BEGIN ATOM
M  V30 1 C -2.5391 -0.1953 0.0000 0
M  V30 2 C -1.7578 -1.3672 0.0000 0
M  V30 3 C -1.7578 0.9766 0.0000 0
M  V30 4 C -0.3906 -0.7812 0.0000 0
M  V30 5 C -0.3906 0.5859 0.0000 0
M  V30 6 C 0.7812 1.1719 0.0000 0
M  V30 7 C 1.9531 -0.7812 0.0000 0
M  V30 8 N 0.7812 -1.5625 0.0000 0
M  V30 9 N 1.9531 0.3906 0.0000 0
M  V30 10 H -3.5156 -0.1953 0.0000 0
M  V30 11 H -2.1484 2.1484 0.0000 0
M  V30 12 H -1.9531 -2.3438 0.0000 0
M  V30 13 H 0.9766 2.3438 0.0000 0
M  V30 14 H 2.9297 -1.3672 0.0000 0
M  V30 15 H 2.7344 0.9766 0.0000 0
M  V30 END ATOM
M  V30 BEGIN BOND
M  V30 1 3 1 2
M  V30 2 1 1 3
M  V30 3 1 1 10
M  V30 4 3 2 4
M  V30 5 1 2 12
M  V30 6 1 3 5
M  V30 7 1 3 11
M  V30 8 3 4 5
M  V30 9 1 4 8
M  V30 10 3 5 6
M  V30 11 1 6 9
M  V30 12 1 6 13
M  V30 13 1 7 8
M  V30 14 1 7 9
M  V30 15 1 7 14
M  V30 16 1 9 15
M  V30 END BOND
M  V30 END CTAB
M  END
>  <ID>
705
$$$$
Structure_706
Score 	 10.0, smilesprid 	smiles	 smilestrue 	smiles	 similartanimoto 	0	 similardice 	0

   15   16  0  0  0  0            999 V3000
M  V30 BEGIN CTAB
M  V30 COUNTS 15 16 0 0 0
M  V30 BEGIN ATOM
M  V30 1 C -2.5391 -0.1953 0.0000 0
M  V30 2 C -1.7578 -1.3672 0.0000 0
M  V30 3 C -1.7578 0.9766 0.0000 0
M  V30 4 C -0.3906 -0.7812 0.0000 0
M  V30 5 C -0.3906 0.5859 0.0000 0
M  V30 6 C 0.7812 1.1719 0.0000 0
M  V30 7 C 1.9531 -0.7812 0.0000 0
M  V30 8 N 0.7812 -1.5625 0.0000 0
M  V30 9 N 1.9531 0.3906 0.0000 0
M  V30 10 H -3.5156 -0.1953 0.0000 0
M  V30 11 H -2.1484 2.1484 0.0000 0
M  V30 12 H -1.9531 -2.3438 0.0000 0
M  V30 13 H 0.9766 2.3438 0.0000 0
M  V30 14 H 2.9297 -1.3672 0.0000 0
M  V30 15 H 2.7344 0.9766 0.0000 0
M  V30 END ATOM
M  V30 BEGIN BOND
M  V30 1 1 1 2
M  V30 2 2 1 3
M  V30 3 1 1 10
M  V30 4 3 2 4
M  V30 5 1 2 12
M  V30 6 1 3 5
M  V30 7 1 3 11
M  V30 8 3 4 5
M  V30 9 1 4 8
M  V30 10 3 5 6
M  V30 11 1 6 9
M  V30 12 1 6 13
M  V30 13 1 7 8
M  V30 14 1 7 9
M  V30 15 1 7 14
M  V30 16 1 9 15
M  V30 END BOND
M  V30 END CTAB
M  END
>  <ID>
706
$$$$
Structure_707
Score 	 12.0, smilesprid 	smiles	 smilestrue 	smiles	 similartanimoto 	0	 similardice 	0

   15   16  0  0  0  0            999 V3000
M  V30 BEGIN CTAB
M  V30 COUNTS 15 16 0 0 0
M  V30 BEGIN ATOM
M  V30 1 C -2.5391 -0.1953 0.0000 0
M  V30 2 C -1.7578 -1.3672 0.0000 0
M  V30 3 C -1.7578 0.9766 0.0000 0
M  V30 4 C -0.3906 -0.7812 0.0000 0
M  V30 5 C -0.3906 0.5859 0.0000 0
M  V30 6 C 0.7812 1.1719 0.0000 0
M  V30 7 C 1.9531 -0.7812 0.0000 0
M  V30 8 N 0.7812 -1.5625 0.0000 0
M  V30 9 N 1.9531 0.3906 0.0000 0
M  V30 10 H -3.5156 -0.1953 0.0000 0
M  V30 11 H -2.1484 2.1484 0.0000 0
M  V30 12 H -1.9531 -2.3438 0.0000 0
M  V30 13 H 0.9766 2.3438 0.0000 0
M  V30 14 H 2.9297 -1.3672 0.0000 0
M  V30 15 H 2.7344 0.9766 0.0000 0
M  V30 END ATOM
M  V30 BEGIN BOND
M  V30 1 2 1 2
M  V30 2 2 1 3
M  V30 3 1 1 10
M  V30 4 3 2 4
M  V30 5 1 2 12
M  V30 6 1 3 5
M  V30 7 1 3 11
M  V30 8 3 4 5
M  V30 9 1 4 8
M  V30 10 3 5 6
M  V30 11 1 6 9
M  V30 12 1 6 13
M  V30 13 1 7 8
M  V30 14 1 7 9
M  V30 15 1 7 14
M  V30 16 1 9 15
M  V30 END BOND
M  V30 END CTAB
M  END
>  <ID>
707
$$$$
Structure_708
Score 	 14.0, smilesprid 	smiles	 smilestrue 	smiles	 similartanimoto 	0	 similardice 	0

   15   16  0  0  0  0            999 V3000
M  V30 BEGIN CTAB
M  V30 COUNTS 15 16 0 0 0
M  V30 BEGIN ATOM
M  V30 1 C -2.5391 -0.1953 0.0000 0
M  V30 2 C -1.7578 -1.3672 0.0000 0
M  V30 3 C -1.7578 0.9766 0.0000 0
M  V30 4 C -0.3906 -0.7812 0.0000 0
M  V30 5 C -0.3906 0.5859 0.0000 0
M  V30 6 C 0.7812 1.1719 0.0000 0
M  V30 7 C 1.9531 -0.7812 0.0000 0
M  V30 8 N 0.7812 -1.5625 0.0000 0
M  V30 9 N 1.9531 0.3906 0.0000 0
M  V30 10 H -3.5156 -0.1953 0.0000 0
M  V30 11 H -2.1484 2.1484 0.0000 0
M  V30 12 H -1.9531 -2.3438 0.0000 0
M  V30 13 H 0.9766 2.3438 0.0000 0
M  V30 14 H 2.9297 -1.3672 0.0000 0
M  V30 15 H 2.7344 0.9766 0.0000 0
M  V30 END ATOM
M  V30 BEGIN BOND
M  V30 1 3 1 2
M  V30 2 2 1 3
M  V30 3 1 1 10
M  V30 4 3 2 4
M  V30 5 1 2 12
M  V30 6 1 3 5
M  V30 7 1 3 11
M  V30 8 3 4 5
M  V30 9 1 4 8
M  V30 10 3 5 6
M  V30 11 1 6 9
M  V30 12 1 6 13
M  V30 13 1 7 8
M  V30 14 1 7 9
M  V30 15 1 7 14
M  V30 16 1 9 15
M  V30 END BOND
M  V30 END CTAB
M  END
>  <ID>
708
$$$$
Structure_709
Score 	 12.0, smilesprid 	smiles	 smilestrue 	smiles	 similartanimoto 	0	 similardice 	0

   15   16  0  0  0  0            999 V3000
M  V30 BEGIN CTAB
M  V30 COUNTS 15 16 0 0 0
M  V30 BEGIN ATOM
M  V30 1 C -2.5391 -0.1953 0.0000 0
M  V30 2 C -1.7578 -1.3672 0.0000 0
M  V30 3 C -1.7578 0.9766 0.0000 0
M  V30 4 C -0.3906 -0.7812 0.0000 0
M  V30 5 C -0.3906 0.5859 0.0000 0
M  V30 6 C 0.7812 1.1719 0.0000 0
M  V30 7 C 1.9531 -0.7812 0.0000 0
M  V30 8 N 0.7812 -1.5625 0.0000 0
M  V30 9 N 1.9531 0.3906 0.0000 0
M  V30 10 H -3.5156 -0.1953 0.0000 0
M  V30 11 H -2.1484 2.1484 0.0000 0
M  V30 12 H -1.9531 -2.3438 0.0000 0
M  V30 13 H 0.9766 2.3438 0.0000 0
M  V30 14 H 2.9297 -1.3672 0.0000 0
M  V30 15 H 2.7344 0.9766 0.0000 0
M  V30 END ATOM
M  V30 BEGIN BOND
M  V30 1 1 1 2
M  V30 2 3 1 3
M  V30 3 1 1 10
M  V30 4 3 2 4
M  V30 5 1 2 12
M  V30 6 1 3 5
M  V30 7 1 3 11
M  V30 8 3 4 5
M  V30 9 1 4 8
M  V30 10 3 5 6
M  V30 11 1 6 9
M  V30 12 1 6 13
M  V30 13 1 7 8
M  V30 14 1 7 9
M  V30 15 1 7 14
M  V30 16 1 9 15
M  V30 END BOND
M  V30 END CTAB
M  END
>  <ID>
709
$$$$
Structure_710
Score 	 14.0, smilesprid 	smiles	 smilestrue 	smiles	 similartanimoto 	0	 similardice 	0

   15   16  0  0  0  0            999 V3000
M  V30 BEGIN CTAB
M  V30 COUNTS 15 16 0 0 0
M  V30 BEGIN ATOM
M  V30 1 C -2.5391 -0.1953 0.0000 0
M  V30 2 C -1.7578 -1.3672 0.0000 0
M  V30 3 C -1.7578 0.9766 0.0000 0
M  V30 4 C -0.3906 -0.7812 0.0000 0
M  V30 5 C -0.3906 0.5859 0.0000 0
M  V30 6 C 0.7812 1.1719 0.0000 0
M  V30 7 C 1.9531 -0.7812 0.0000 0
M  V30 8 N 0.7812 -1.5625 0.0000 0
M  V30 9 N 1.9531 0.3906 0.0000 0
M  V30 10 H -3.5156 -0.1953 0.0000 0
M  V30 11 H -2.1484 2.1484 0.0000 0
M  V30 12 H -1.9531 -2.3438 0.0000 0
M  V30 13 H 0.9766 2.3438 0.0000 0
M  V30 14 H 2.9297 -1.3672 0.0000 0
M  V30 15 H 2.7344 0.9766 0.0000 0
M  V30 END ATOM
M  V30 BEGIN BOND
M  V30 1 2 1 2
M  V30 2 3 1 3
M  V30 3 1 1 10
M  V30 4 3 2 4
M  V30 5 1 2 12
M  V30 6 1 3 5
M  V30 7 1 3 11
M  V30 8 3 4 5
M  V30 9 1 4 8
M  V30 10 3 5 6
M  V30 11 1 6 9
M  V30 12 1 6 13
M  V30 13 1 7 8
M  V30 14 1 7 9
M  V30 15 1 7 14
M  V30 16 1 9 15
M  V30 END BOND
M  V30 END CTAB
M  END
>  <ID>
710
$$$$
Structure_711
Score 	 16.0, smilesprid 	smiles	 smilestrue 	smiles	 similartanimoto 	0	 similardice 	0

   15   16  0  0  0  0            999 V3000
M  V30 BEGIN CTAB
M  V30 COUNTS 15 16 0 0 0
M  V30 BEGIN ATOM
M  V30 1 C -2.5391 -0.1953 0.0000 0
M  V30 2 C -1.7578 -1.3672 0.0000 0
M  V30 3 C -1.7578 0.9766 0.0000 0
M  V30 4 C -0.3906 -0.7812 0.0000 0
M  V30 5 C -0.3906 0.5859 0.0000 0
M  V30 6 C 0.7812 1.1719 0.0000 0
M  V30 7 C 1.9531 -0.7812 0.0000 0
M  V30 8 N 0.7812 -1.5625 0.0000 0
M  V30 9 N 1.9531 0.3906 0.0000 0
M  V30 10 H -3.5156 -0.1953 0.0000 0
M  V30 11 H -2.1484 2.1484 0.0000 0
M  V30 12 H -1.9531 -2.3438 0.0000 0
M  V30 13 H 0.9766 2.3438 0.0000 0
M  V30 14 H 2.9297 -1.3672 0.0000 0
M  V30 15 H 2.7344 0.9766 0.0000 0
M  V30 END ATOM
M  V30 BEGIN BOND
M  V30 1 3 1 2
M  V30 2 3 1 3
M  V30 3 1 1 10
M  V30 4 3 2 4
M  V30 5 1 2 12
M  V30 6 1 3 5
M  V30 7 1 3 11
M  V30 8 3 4 5
M  V30 9 1 4 8
M  V30 10 3 5 6
M  V30 11 1 6 9
M  V30 12 1 6 13
M  V30 13 1 7 8
M  V30 14 1 7 9
M  V30 15 1 7 14
M  V30 16 1 9 15
M  V30 END BOND
M  V30 END CTAB
M  END
>  <ID>
711
$$$$
Structure_712
Score 	 12.0, smilesprid 	smiles	 smilestrue 	smiles	 similartanimoto 	0	 similardice 	0

   15   16  0  0  0  0            999 V3000
M  V30 BEGIN CTAB
M  V30 COUNTS 15 16 0 0 0
M  V30 BEGIN ATOM
M  V30 1 C -2.5391 -0.1953 0.0000 0
M  V30 2 C -1.7578 -1.3672 0.0000 0
M  V30 3 C -1.7578 0.9766 0.0000 0
M  V30 4 C -0.3906 -0.7812 0.0000 0
M  V30 5 C -0.3906 0.5859 0.0000 0
M  V30 6 C 0.7812 1.1719 0.0000 0
M  V30 7 C 1.9531 -0.7812 0.0000 0
M  V30 8 N 0.7812 -1.5625 0.0000 0
M  V30 9 N 1.9531 0.3906 0.0000 0
M  V30 10 H -3.5156 -0.1953 0.0000 0
M  V30 11 H -2.1484 2.1484 0.0000 0
M  V30 12 H -1.9531 -2.3438 0.0000 0
M  V30 13 H 0.9766 2.3438 0.0000 0
M  V30 14 H 2.9297 -1.3672 0.0000 0
M  V30 15 H 2.7344 0.9766 0.0000 0
M  V30 END ATOM
M  V30 BEGIN BOND
M  V30 1 1 1 2
M  V30 2 1 1 3
M  V30 3 1 1 10
M  V30 4 3 2 4
M  V30 5 1 2 12
M  V30 6 2 3 5
M  V30 7 1 3 11
M  V30 8 3 4 5
M  V30 9 1 4 8
M  V30 10 3 5 6
M  V30 11 1 6 9
M  V30 12 1 6 13
M  V30 13 1 7 8
M  V30 14 1 7 9
M  V30 15 1 7 14
M  V30 16 1 9 15
M  V30 END BOND
M  V30 END CTAB
M  END
>  <ID>
712
$$$$
Structure_713
Score 	 12.0, smilesprid 	smiles	 smilestrue 	smiles	 similartanimoto 	0	 similardice 	0

   15   16  0  0  0  0            999 V3000
M  V30 BEGIN CTAB
M  V30 COUNTS 15 16 0 0 0
M  V30 BEGIN ATOM
M  V30 1 C -2.5391 -0.1953 0.0000 0
M  V30 2 C -1.7578 -1.3672 0.0000 0
M  V30 3 C -1.7578 0.9766 0.0000 0
M  V30 4 C -0.3906 -0.7812 0.0000 0
M  V30 5 C -0.3906 0.5859 0.0000 0
M  V30 6 C 0.7812 1.1719 0.0000 0
M  V30 7 C 1.9531 -0.7812 0.0000 0
M  V30 8 N 0.7812 -1.5625 0.0000 0
M  V30 9 N 1.9531 0.3906 0.0000 0
M  V30 10 H -3.5156 -0.1953 0.0000 0
M  V30 11 H -2.1484 2.1484 0.0000 0
M  V30 12 H -1.9531 -2.3438 0.0000 0
M  V30 13 H 0.9766 2.3438 0.0000 0
M  V30 14 H 2.9297 -1.3672 0.0000 0
M  V30 15 H 2.7344 0.9766 0.0000 0
M  V30 END ATOM
M  V30 BEGIN BOND
M  V30 1 2 1 2
M  V30 2 1 1 3
M  V30 3 1 1 10
M  V30 4 3 2 4
M  V30 5 1 2 12
M  V30 6 2 3 5
M  V30 7 1 3 11
M  V30 8 3 4 5
M  V30 9 1 4 8
M  V30 10 3 5 6
M  V30 11 1 6 9
M  V30 12 1 6 13
M  V30 13 1 7 8
M  V30 14 1 7 9
M  V30 15 1 7 14
M  V30 16 1 9 15
M  V30 END BOND
M  V30 END CTAB
M  END
>  <ID>
713
$$$$
Structure_714
Score 	 14.0, smilesprid 	smiles	 smilestrue 	smiles	 similartanimoto 	0	 similardice 	0

   15   16  0  0  0  0            999 V3000
M  V30 BEGIN CTAB
M  V30 COUNTS 15 16 0 0 0
M  V30 BEGIN ATOM
M  V30 1 C -2.5391 -0.1953 0.0000 0
M  V30 2 C -1.7578 -1.3672 0.0000 0
M  V30 3 C -1.7578 0.9766 0.0000 0
M  V30 4 C -0.3906 -0.7812 0.0000 0
M  V30 5 C -0.3906 0.5859 0.0000 0
M  V30 6 C 0.7812 1.1719 0.0000 0
M  V30 7 C 1.9531 -0.7812 0.0000 0
M  V30 8 N 0.7812 -1.5625 0.0000 0
M  V30 9 N 1.9531 0.3906 0.0000 0
M  V30 10 H -3.5156 -0.1953 0.0000 0
M  V30 11 H -2.1484 2.1484 0.0000 0
M  V30 12 H -1.9531 -2.3438 0.0000 0
M  V30 13 H 0.9766 2.3438 0.0000 0
M  V30 14 H 2.9297 -1.3672 0.0000 0
M  V30 15 H 2.7344 0.9766 0.0000 0
M  V30 END ATOM
M  V30 BEGIN BOND
M  V30 1 3 1 2
M  V30 2 1 1 3
M  V30 3 1 1 10
M  V30 4 3 2 4
M  V30 5 1 2 12
M  V30 6 2 3 5
M  V30 7 1 3 11
M  V30 8 3 4 5
M  V30 9 1 4 8
M  V30 10 3 5 6
M  V30 11 1 6 9
M  V30 12 1 6 13
M  V30 13 1 7 8
M  V30 14 1 7 9
M  V30 15 1 7 14
M  V30 16 1 9 15
M  V30 END BOND
M  V30 END CTAB
M  END
>  <ID>
714
$$$$
Structure_715
Score 	 12.0, smilesprid 	smiles	 smilestrue 	smiles	 similartanimoto 	0	 similardice 	0

   15   16  0  0  0  0            999 V3000
M  V30 BEGIN CTAB
M  V30 COUNTS 15 16 0 0 0
M  V30 BEGIN ATOM
M  V30 1 C -2.5391 -0.1953 0.0000 0
M  V30 2 C -1.7578 -1.3672 0.0000 0
M  V30 3 C -1.7578 0.9766 0.0000 0
M  V30 4 C -0.3906 -0.7812 0.0000 0
M  V30 5 C -0.3906 0.5859 0.0000 0
M  V30 6 C 0.7812 1.1719 0.0000 0
M  V30 7 C 1.9531 -0.7812 0.0000 0
M  V30 8 N 0.7812 -1.5625 0.0000 0
M  V30 9 N 1.9531 0.3906 0.0000 0
M  V30 10 H -3.5156 -0.1953 0.0000 0
M  V30 11 H -2.1484 2.1484 0.0000 0
M  V30 12 H -1.9531 -2.3438 0.0000 0
M  V30 13 H 0.9766 2.3438 0.0000 0
M  V30 14 H 2.9297 -1.3672 0.0000 0
M  V30 15 H 2.7344 0.9766 0.0000 0
M  V30 END ATOM
M  V30 BEGIN BOND
M  V30 1 1 1 2
M  V30 2 2 1 3
M  V30 3 1 1 10
M  V30 4 3 2 4
M  V30 5 1 2 12
M  V30 6 2 3 5
M  V30 7 1 3 11
M  V30 8 3 4 5
M  V30 9 1 4 8
M  V30 10 3 5 6
M  V30 11 1 6 9
M  V30 12 1 6 13
M  V30 13 1 7 8
M  V30 14 1 7 9
M  V30 15 1 7 14
M  V30 16 1 9 15
M  V30 END BOND
M  V30 END CTAB
M  END
>  <ID>
715
$$$$
Structure_716
Score 	 14.0, smilesprid 	smiles	 smilestrue 	smiles	 similartanimoto 	0	 similardice 	0

   15   16  0  0  0  0            999 V3000
M  V30 BEGIN CTAB
M  V30 COUNTS 15 16 0 0 0
M  V30 BEGIN ATOM
M  V30 1 C -2.5391 -0.1953 0.0000 0
M  V30 2 C -1.7578 -1.3672 0.0000 0
M  V30 3 C -1.7578 0.9766 0.0000 0
M  V30 4 C -0.3906 -0.7812 0.0000 0
M  V30 5 C -0.3906 0.5859 0.0000 0
M  V30 6 C 0.7812 1.1719 0.0000 0
M  V30 7 C 1.9531 -0.7812 0.0000 0
M  V30 8 N 0.7812 -1.5625 0.0000 0
M  V30 9 N 1.9531 0.3906 0.0000 0
M  V30 10 H -3.5156 -0.1953 0.0000 0
M  V30 11 H -2.1484 2.1484 0.0000 0
M  V30 12 H -1.9531 -2.3438 0.0000 0
M  V30 13 H 0.9766 2.3438 0.0000 0
M  V30 14 H 2.9297 -1.3672 0.0000 0
M  V30 15 H 2.7344 0.9766 0.0000 0
M  V30 END ATOM
M  V30 BEGIN BOND
M  V30 1 2 1 2
M  V30 2 2 1 3
M  V30 3 1 1 10
M  V30 4 3 2 4
M  V30 5 1 2 12
M  V30 6 2 3 5
M  V30 7 1 3 11
M  V30 8 3 4 5
M  V30 9 1 4 8
M  V30 10 3 5 6
M  V30 11 1 6 9
M  V30 12 1 6 13
M  V30 13 1 7 8
M  V30 14 1 7 9
M  V30 15 1 7 14
M  V30 16 1 9 15
M  V30 END BOND
M  V30 END CTAB
M  END
>  <ID>
716
$$$$
Structure_717
Score 	 16.0, smilesprid 	smiles	 smilestrue 	smiles	 similartanimoto 	0	 similardice 	0

   15   16  0  0  0  0            999 V3000
M  V30 BEGIN CTAB
M  V30 COUNTS 15 16 0 0 0
M  V30 BEGIN ATOM
M  V30 1 C -2.5391 -0.1953 0.0000 0
M  V30 2 C -1.7578 -1.3672 0.0000 0
M  V30 3 C -1.7578 0.9766 0.0000 0
M  V30 4 C -0.3906 -0.7812 0.0000 0
M  V30 5 C -0.3906 0.5859 0.0000 0
M  V30 6 C 0.7812 1.1719 0.0000 0
M  V30 7 C 1.9531 -0.7812 0.0000 0
M  V30 8 N 0.7812 -1.5625 0.0000 0
M  V30 9 N 1.9531 0.3906 0.0000 0
M  V30 10 H -3.5156 -0.1953 0.0000 0
M  V30 11 H -2.1484 2.1484 0.0000 0
M  V30 12 H -1.9531 -2.3438 0.0000 0
M  V30 13 H 0.9766 2.3438 0.0000 0
M  V30 14 H 2.9297 -1.3672 0.0000 0
M  V30 15 H 2.7344 0.9766 0.0000 0
M  V30 END ATOM
M  V30 BEGIN BOND
M  V30 1 3 1 2
M  V30 2 2 1 3
M  V30 3 1 1 10
M  V30 4 3 2 4
M  V30 5 1 2 12
M  V30 6 2 3 5
M  V30 7 1 3 11
M  V30 8 3 4 5
M  V30 9 1 4 8
M  V30 10 3 5 6
M  V30 11 1 6 9
M  V30 12 1 6 13
M  V30 13 1 7 8
M  V30 14 1 7 9
M  V30 15 1 7 14
M  V30 16 1 9 15
M  V30 END BOND
M  V30 END CTAB
M  END
>  <ID>
717
$$$$
Structure_718
Score 	 14.0, smilesprid 	smiles	 smilestrue 	smiles	 similartanimoto 	0	 similardice 	0

   15   16  0  0  0  0            999 V3000
M  V30 BEGIN CTAB
M  V30 COUNTS 15 16 0 0 0
M  V30 BEGIN ATOM
M  V30 1 C -2.5391 -0.1953 0.0000 0
M  V30 2 C -1.7578 -1.3672 0.0000 0
M  V30 3 C -1.7578 0.9766 0.0000 0
M  V30 4 C -0.3906 -0.7812 0.0000 0
M  V30 5 C -0.3906 0.5859 0.0000 0
M  V30 6 C 0.7812 1.1719 0.0000 0
M  V30 7 C 1.9531 -0.7812 0.0000 0
M  V30 8 N 0.7812 -1.5625 0.0000 0
M  V30 9 N 1.9531 0.3906 0.0000 0
M  V30 10 H -3.5156 -0.1953 0.0000 0
M  V30 11 H -2.1484 2.1484 0.0000 0
M  V30 12 H -1.9531 -2.3438 0.0000 0
M  V30 13 H 0.9766 2.3438 0.0000 0
M  V30 14 H 2.9297 -1.3672 0.0000 0
M  V30 15 H 2.7344 0.9766 0.0000 0
M  V30 END ATOM
M  V30 BEGIN BOND
M  V30 1 1 1 2
M  V30 2 3 1 3
M  V30 3 1 1 10
M  V30 4 3 2 4
M  V30 5 1 2 12
M  V30 6 2 3 5
M  V30 7 1 3 11
M  V30 8 3 4 5
M  V30 9 1 4 8
M  V30 10 3 5 6
M  V30 11 1 6 9
M  V30 12 1 6 13
M  V30 13 1 7 8
M  V30 14 1 7 9
M  V30 15 1 7 14
M  V30 16 1 9 15
M  V30 END BOND
M  V30 END CTAB
M  END
>  <ID>
718
$$$$
Structure_719
Score 	 16.0, smilesprid 	smiles	 smilestrue 	smiles	 similartanimoto 	0	 similardice 	0

   15   16  0  0  0  0            999 V3000
M  V30 BEGIN CTAB
M  V30 COUNTS 15 16 0 0 0
M  V30 BEGIN ATOM
M  V30 1 C -2.5391 -0.1953 0.0000 0
M  V30 2 C -1.7578 -1.3672 0.0000 0
M  V30 3 C -1.7578 0.9766 0.0000 0
M  V30 4 C -0.3906 -0.7812 0.0000 0
M  V30 5 C -0.3906 0.5859 0.0000 0
M  V30 6 C 0.7812 1.1719 0.0000 0
M  V30 7 C 1.9531 -0.7812 0.0000 0
M  V30 8 N 0.7812 -1.5625 0.0000 0
M  V30 9 N 1.9531 0.3906 0.0000 0
M  V30 10 H -3.5156 -0.1953 0.0000 0
M  V30 11 H -2.1484 2.1484 0.0000 0
M  V30 12 H -1.9531 -2.3438 0.0000 0
M  V30 13 H 0.9766 2.3438 0.0000 0
M  V30 14 H 2.9297 -1.3672 0.0000 0
M  V30 15 H 2.7344 0.9766 0.0000 0
M  V30 END ATOM
M  V30 BEGIN BOND
M  V30 1 2 1 2
M  V30 2 3 1 3
M  V30 3 1 1 10
M  V30 4 3 2 4
M  V30 5 1 2 12
M  V30 6 2 3 5
M  V30 7 1 3 11
M  V30 8 3 4 5
M  V30 9 1 4 8
M  V30 10 3 5 6
M  V30 11 1 6 9
M  V30 12 1 6 13
M  V30 13 1 7 8
M  V30 14 1 7 9
M  V30 15 1 7 14
M  V30 16 1 9 15
M  V30 END BOND
M  V30 END CTAB
M  END
>  <ID>
719
$$$$
Structure_720
Score 	 18.0, smilesprid 	smiles	 smilestrue 	smiles	 similartanimoto 	0	 similardice 	0

   15   16  0  0  0  0            999 V3000
M  V30 BEGIN CTAB
M  V30 COUNTS 15 16 0 0 0
M  V30 BEGIN ATOM
M  V30 1 C -2.5391 -0.1953 0.0000 0
M  V30 2 C -1.7578 -1.3672 0.0000 0
M  V30 3 C -1.7578 0.9766 0.0000 0
M  V30 4 C -0.3906 -0.7812 0.0000 0
M  V30 5 C -0.3906 0.5859 0.0000 0
M  V30 6 C 0.7812 1.1719 0.0000 0
M  V30 7 C 1.9531 -0.7812 0.0000 0
M  V30 8 N 0.7812 -1.5625 0.0000 0
M  V30 9 N 1.9531 0.3906 0.0000 0
M  V30 10 H -3.5156 -0.1953 0.0000 0
M  V30 11 H -2.1484 2.1484 0.0000 0
M  V30 12 H -1.9531 -2.3438 0.0000 0
M  V30 13 H 0.9766 2.3438 0.0000 0
M  V30 14 H 2.9297 -1.3672 0.0000 0
M  V30 15 H 2.7344 0.9766 0.0000 0
M  V30 END ATOM
M  V30 BEGIN BOND
M  V30 1 3 1 2
M  V30 2 3 1 3
M  V30 3 1 1 10
M  V30 4 3 2 4
M  V30 5 1 2 12
M  V30 6 2 3 5
M  V30 7 1 3 11
M  V30 8 3 4 5
M  V30 9 1 4 8
M  V30 10 3 5 6
M  V30 11 1 6 9
M  V30 12 1 6 13
M  V30 13 1 7 8
M  V30 14 1 7 9
M  V30 15 1 7 14
M  V30 16 1 9 15
M  V30 END BOND
M  V30 END CTAB
M  END
>  <ID>
720
$$$$
Structure_721
Score 	 14.0, smilesprid 	smiles	 smilestrue 	smiles	 similartanimoto 	0	 similardice 	0

   15   16  0  0  0  0            999 V3000
M  V30 BEGIN CTAB
M  V30 COUNTS 15 16 0 0 0
M  V30 BEGIN ATOM
M  V30 1 C -2.5391 -0.1953 0.0000 0
M  V30 2 C -1.7578 -1.3672 0.0000 0
M  V30 3 C -1.7578 0.9766 0.0000 0
M  V30 4 C -0.3906 -0.7812 0.0000 0
M  V30 5 C -0.3906 0.5859 0.0000 0
M  V30 6 C 0.7812 1.1719 0.0000 0
M  V30 7 C 1.9531 -0.7812 0.0000 0
M  V30 8 N 0.7812 -1.5625 0.0000 0
M  V30 9 N 1.9531 0.3906 0.0000 0
M  V30 10 H -3.5156 -0.1953 0.0000 0
M  V30 11 H -2.1484 2.1484 0.0000 0
M  V30 12 H -1.9531 -2.3438 0.0000 0
M  V30 13 H 0.9766 2.3438 0.0000 0
M  V30 14 H 2.9297 -1.3672 0.0000 0
M  V30 15 H 2.7344 0.9766 0.0000 0
M  V30 END ATOM
M  V30 BEGIN BOND
M  V30 1 1 1 2
M  V30 2 1 1 3
M  V30 3 1 1 10
M  V30 4 3 2 4
M  V30 5 1 2 12
M  V30 6 3 3 5
M  V30 7 1 3 11
M  V30 8 3 4 5
M  V30 9 1 4 8
M  V30 10 3 5 6
M  V30 11 1 6 9
M  V30 12 1 6 13
M  V30 13 1 7 8
M  V30 14 1 7 9
M  V30 15 1 7 14
M  V30 16 1 9 15
M  V30 END BOND
M  V30 END CTAB
M  END
>  <ID>
721
$$$$
Structure_722
Score 	 14.0, smilesprid 	smiles	 smilestrue 	smiles	 similartanimoto 	0	 similardice 	0

   15   16  0  0  0  0            999 V3000
M  V30 BEGIN CTAB
M  V30 COUNTS 15 16 0 0 0
M  V30 BEGIN ATOM
M  V30 1 C -2.5391 -0.1953 0.0000 0
M  V30 2 C -1.7578 -1.3672 0.0000 0
M  V30 3 C -1.7578 0.9766 0.0000 0
M  V30 4 C -0.3906 -0.7812 0.0000 0
M  V30 5 C -0.3906 0.5859 0.0000 0
M  V30 6 C 0.7812 1.1719 0.0000 0
M  V30 7 C 1.9531 -0.7812 0.0000 0
M  V30 8 N 0.7812 -1.5625 0.0000 0
M  V30 9 N 1.9531 0.3906 0.0000 0
M  V30 10 H -3.5156 -0.1953 0.0000 0
M  V30 11 H -2.1484 2.1484 0.0000 0
M  V30 12 H -1.9531 -2.3438 0.0000 0
M  V30 13 H 0.9766 2.3438 0.0000 0
M  V30 14 H 2.9297 -1.3672 0.0000 0
M  V30 15 H 2.7344 0.9766 0.0000 0
M  V30 END ATOM
M  V30 BEGIN BOND
M  V30 1 2 1 2
M  V30 2 1 1 3
M  V30 3 1 1 10
M  V30 4 3 2 4
M  V30 5 1 2 12
M  V30 6 3 3 5
M  V30 7 1 3 11
M  V30 8 3 4 5
M  V30 9 1 4 8
M  V30 10 3 5 6
M  V30 11 1 6 9
M  V30 12 1 6 13
M  V30 13 1 7 8
M  V30 14 1 7 9
M  V30 15 1 7 14
M  V30 16 1 9 15
M  V30 END BOND
M  V30 END CTAB
M  END
>  <ID>
722
$$$$
Structure_723
Score 	 16.0, smilesprid 	smiles	 smilestrue 	smiles	 similartanimoto 	0	 similardice 	0

   15   16  0  0  0  0            999 V3000
M  V30 BEGIN CTAB
M  V30 COUNTS 15 16 0 0 0
M  V30 BEGIN ATOM
M  V30 1 C -2.5391 -0.1953 0.0000 0
M  V30 2 C -1.7578 -1.3672 0.0000 0
M  V30 3 C -1.7578 0.9766 0.0000 0
M  V30 4 C -0.3906 -0.7812 0.0000 0
M  V30 5 C -0.3906 0.5859 0.0000 0
M  V30 6 C 0.7812 1.1719 0.0000 0
M  V30 7 C 1.9531 -0.7812 0.0000 0
M  V30 8 N 0.7812 -1.5625 0.0000 0
M  V30 9 N 1.9531 0.3906 0.0000 0
M  V30 10 H -3.5156 -0.1953 0.0000 0
M  V30 11 H -2.1484 2.1484 0.0000 0
M  V30 12 H -1.9531 -2.3438 0.0000 0
M  V30 13 H 0.9766 2.3438 0.0000 0
M  V30 14 H 2.9297 -1.3672 0.0000 0
M  V30 15 H 2.7344 0.9766 0.0000 0
M  V30 END ATOM
M  V30 BEGIN BOND
M  V30 1 3 1 2
M  V30 2 1 1 3
M  V30 3 1 1 10
M  V30 4 3 2 4
M  V30 5 1 2 12
M  V30 6 3 3 5
M  V30 7 1 3 11
M  V30 8 3 4 5
M  V30 9 1 4 8
M  V30 10 3 5 6
M  V30 11 1 6 9
M  V30 12 1 6 13
M  V30 13 1 7 8
M  V30 14 1 7 9
M  V30 15 1 7 14
M  V30 16 1 9 15
M  V30 END BOND
M  V30 END CTAB
M  END
>  <ID>
723
$$$$
Structure_724
Score 	 14.0, smilesprid 	smiles	 smilestrue 	smiles	 similartanimoto 	0	 similardice 	0

   15   16  0  0  0  0            999 V3000
M  V30 BEGIN CTAB
M  V30 COUNTS 15 16 0 0 0
M  V30 BEGIN ATOM
M  V30 1 C -2.5391 -0.1953 0.0000 0
M  V30 2 C -1.7578 -1.3672 0.0000 0
M  V30 3 C -1.7578 0.9766 0.0000 0
M  V30 4 C -0.3906 -0.7812 0.0000 0
M  V30 5 C -0.3906 0.5859 0.0000 0
M  V30 6 C 0.7812 1.1719 0.0000 0
M  V30 7 C 1.9531 -0.7812 0.0000 0
M  V30 8 N 0.7812 -1.5625 0.0000 0
M  V30 9 N 1.9531 0.3906 0.0000 0
M  V30 10 H -3.5156 -0.1953 0.0000 0
M  V30 11 H -2.1484 2.1484 0.0000 0
M  V30 12 H -1.9531 -2.3438 0.0000 0
M  V30 13 H 0.9766 2.3438 0.0000 0
M  V30 14 H 2.9297 -1.3672 0.0000 0
M  V30 15 H 2.7344 0.9766 0.0000 0
M  V30 END ATOM
M  V30 BEGIN BOND
M  V30 1 1 1 2
M  V30 2 2 1 3
M  V30 3 1 1 10
M  V30 4 3 2 4
M  V30 5 1 2 12
M  V30 6 3 3 5
M  V30 7 1 3 11
M  V30 8 3 4 5
M  V30 9 1 4 8
M  V30 10 3 5 6
M  V30 11 1 6 9
M  V30 12 1 6 13
M  V30 13 1 7 8
M  V30 14 1 7 9
M  V30 15 1 7 14
M  V30 16 1 9 15
M  V30 END BOND
M  V30 END CTAB
M  END
>  <ID>
724
$$$$
Structure_725
Score 	 16.0, smilesprid 	smiles	 smilestrue 	smiles	 similartanimoto 	0	 similardice 	0

   15   16  0  0  0  0            999 V3000
M  V30 BEGIN CTAB
M  V30 COUNTS 15 16 0 0 0
M  V30 BEGIN ATOM
M  V30 1 C -2.5391 -0.1953 0.0000 0
M  V30 2 C -1.7578 -1.3672 0.0000 0
M  V30 3 C -1.7578 0.9766 0.0000 0
M  V30 4 C -0.3906 -0.7812 0.0000 0
M  V30 5 C -0.3906 0.5859 0.0000 0
M  V30 6 C 0.7812 1.1719 0.0000 0
M  V30 7 C 1.9531 -0.7812 0.0000 0
M  V30 8 N 0.7812 -1.5625 0.0000 0
M  V30 9 N 1.9531 0.3906 0.0000 0
M  V30 10 H -3.5156 -0.1953 0.0000 0
M  V30 11 H -2.1484 2.1484 0.0000 0
M  V30 12 H -1.9531 -2.3438 0.0000 0
M  V30 13 H 0.9766 2.3438 0.0000 0
M  V30 14 H 2.9297 -1.3672 0.0000 0
M  V30 15 H 2.7344 0.9766 0.0000 0
M  V30 END ATOM
M  V30 BEGIN BOND
M  V30 1 2 1 2
M  V30 2 2 1 3
M  V30 3 1 1 10
M  V30 4 3 2 4
M  V30 5 1 2 12
M  V30 6 3 3 5
M  V30 7 1 3 11
M  V30 8 3 4 5
M  V30 9 1 4 8
M  V30 10 3 5 6
M  V30 11 1 6 9
M  V30 12 1 6 13
M  V30 13 1 7 8
M  V30 14 1 7 9
M  V30 15 1 7 14
M  V30 16 1 9 15
M  V30 END BOND
M  V30 END CTAB
M  END
>  <ID>
725
$$$$
Structure_726
Score 	 18.0, smilesprid 	smiles	 smilestrue 	smiles	 similartanimoto 	0	 similardice 	0

   15   16  0  0  0  0            999 V3000
M  V30 BEGIN CTAB
M  V30 COUNTS 15 16 0 0 0
M  V30 BEGIN ATOM
M  V30 1 C -2.5391 -0.1953 0.0000 0
M  V30 2 C -1.7578 -1.3672 0.0000 0
M  V30 3 C -1.7578 0.9766 0.0000 0
M  V30 4 C -0.3906 -0.7812 0.0000 0
M  V30 5 C -0.3906 0.5859 0.0000 0
M  V30 6 C 0.7812 1.1719 0.0000 0
M  V30 7 C 1.9531 -0.7812 0.0000 0
M  V30 8 N 0.7812 -1.5625 0.0000 0
M  V30 9 N 1.9531 0.3906 0.0000 0
M  V30 10 H -3.5156 -0.1953 0.0000 0
M  V30 11 H -2.1484 2.1484 0.0000 0
M  V30 12 H -1.9531 -2.3438 0.0000 0
M  V30 13 H 0.9766 2.3438 0.0000 0
M  V30 14 H 2.9297 -1.3672 0.0000 0
M  V30 15 H 2.7344 0.9766 0.0000 0
M  V30 END ATOM
M  V30 BEGIN BOND
M  V30 1 3 1 2
M  V30 2 2 1 3
M  V30 3 1 1 10
M  V30 4 3 2 4
M  V30 5 1 2 12
M  V30 6 3 3 5
M  V30 7 1 3 11
M  V30 8 3 4 5
M  V30 9 1 4 8
M  V30 10 3 5 6
M  V30 11 1 6 9
M  V30 12 1 6 13
M  V30 13 1 7 8
M  V30 14 1 7 9
M  V30 15 1 7 14
M  V30 16 1 9 15
M  V30 END BOND
M  V30 END CTAB
M  END
>  <ID>
726
$$$$
Structure_727
Score 	 16.0, smilesprid 	smiles	 smilestrue 	smiles	 similartanimoto 	0	 similardice 	0

   15   16  0  0  0  0            999 V3000
M  V30 BEGIN CTAB
M  V30 COUNTS 15 16 0 0 0
M  V30 BEGIN ATOM
M  V30 1 C -2.5391 -0.1953 0.0000 0
M  V30 2 C -1.7578 -1.3672 0.0000 0
M  V30 3 C -1.7578 0.9766 0.0000 0
M  V30 4 C -0.3906 -0.7812 0.0000 0
M  V30 5 C -0.3906 0.5859 0.0000 0
M  V30 6 C 0.7812 1.1719 0.0000 0
M  V30 7 C 1.9531 -0.7812 0.0000 0
M  V30 8 N 0.7812 -1.5625 0.0000 0
M  V30 9 N 1.9531 0.3906 0.0000 0
M  V30 10 H -3.5156 -0.1953 0.0000 0
M  V30 11 H -2.1484 2.1484 0.0000 0
M  V30 12 H -1.9531 -2.3438 0.0000 0
M  V30 13 H 0.9766 2.3438 0.0000 0
M  V30 14 H 2.9297 -1.3672 0.0000 0
M  V30 15 H 2.7344 0.9766 0.0000 0
M  V30 END ATOM
M  V30 BEGIN BOND
M  V30 1 1 1 2
M  V30 2 3 1 3
M  V30 3 1 1 10
M  V30 4 3 2 4
M  V30 5 1 2 12
M  V30 6 3 3 5
M  V30 7 1 3 11
M  V30 8 3 4 5
M  V30 9 1 4 8
M  V30 10 3 5 6
M  V30 11 1 6 9
M  V30 12 1 6 13
M  V30 13 1 7 8
M  V30 14 1 7 9
M  V30 15 1 7 14
M  V30 16 1 9 15
M  V30 END BOND
M  V30 END CTAB
M  END
>  <ID>
727
$$$$
Structure_728
Score 	 18.0, smilesprid 	smiles	 smilestrue 	smiles	 similartanimoto 	0	 similardice 	0

   15   16  0  0  0  0            999 V3000
M  V30 BEGIN CTAB
M  V30 COUNTS 15 16 0 0 0
M  V30 BEGIN ATOM
M  V30 1 C -2.5391 -0.1953 0.0000 0
M  V30 2 C -1.7578 -1.3672 0.0000 0
M  V30 3 C -1.7578 0.9766 0.0000 0
M  V30 4 C -0.3906 -0.7812 0.0000 0
M  V30 5 C -0.3906 0.5859 0.0000 0
M  V30 6 C 0.7812 1.1719 0.0000 0
M  V30 7 C 1.9531 -0.7812 0.0000 0
M  V30 8 N 0.7812 -1.5625 0.0000 0
M  V30 9 N 1.9531 0.3906 0.0000 0
M  V30 10 H -3.5156 -0.1953 0.0000 0
M  V30 11 H -2.1484 2.1484 0.0000 0
M  V30 12 H -1.9531 -2.3438 0.0000 0
M  V30 13 H 0.9766 2.3438 0.0000 0
M  V30 14 H 2.9297 -1.3672 0.0000 0
M  V30 15 H 2.7344 0.9766 0.0000 0
M  V30 END ATOM
M  V30 BEGIN BOND
M  V30 1 2 1 2
M  V30 2 3 1 3
M  V30 3 1 1 10
M  V30 4 3 2 4
M  V30 5 1 2 12
M  V30 6 3 3 5
M  V30 7 1 3 11
M  V30 8 3 4 5
M  V30 9 1 4 8
M  V30 10 3 5 6
M  V30 11 1 6 9
M  V30 12 1 6 13
M  V30 13 1 7 8
M  V30 14 1 7 9
M  V30 15 1 7 14
M  V30 16 1 9 15
M  V30 END BOND
M  V30 END CTAB
M  END
>  <ID>
728
$$$$
Structure_729
Score 	 20.0, smilesprid 	smiles	 smilestrue 	smiles	 similartanimoto 	0	 similardice 	0

   15   16  0  0  0  0            999 V3000
M  V30 BEGIN CTAB
M  V30 COUNTS 15 16 0 0 0
M  V30 BEGIN ATOM
M  V30 1 C -2.5391 -0.1953 0.0000 0
M  V30 2 C -1.7578 -1.3672 0.0000 0
M  V30 3 C -1.7578 0.9766 0.0000 0
M  V30 4 C -0.3906 -0.7812 0.0000 0
M  V30 5 C -0.3906 0.5859 0.0000 0
M  V30 6 C 0.7812 1.1719 0.0000 0
M  V30 7 C 1.9531 -0.7812 0.0000 0
M  V30 8 N 0.7812 -1.5625 0.0000 0
M  V30 9 N 1.9531 0.3906 0.0000 0
M  V30 10 H -3.5156 -0.1953 0.0000 0
M  V30 11 H -2.1484 2.1484 0.0000 0
M  V30 12 H -1.9531 -2.3438 0.0000 0
M  V30 13 H 0.9766 2.3438 0.0000 0
M  V30 14 H 2.9297 -1.3672 0.0000 0
M  V30 15 H 2.7344 0.9766 0.0000 0
M  V30 END ATOM
M  V30 BEGIN BOND
M  V30 1 3 1 2
M  V30 2 3 1 3
M  V30 3 1 1 10
M  V30 4 3 2 4
M  V30 5 1 2 12
M  V30 6 3 3 5
M  V30 7 1 3 11
M  V30 8 3 4 5
M  V30 9 1 4 8
M  V30 10 3 5 6
M  V30 11 1 6 9
M  V30 12 1 6 13
M  V30 13 1 7 8
M  V30 14 1 7 9
M  V30 15 1 7 14
M  V30 16 1 9 15
M  V30 END BOND
M  V30 END CTAB
M  END
>  <ID>
729
$$$$
Structure_730
Score 	 6.0, smilesprid 	smiles	 smilestrue 	smiles	 similartanimoto 	0	 similardice 	0

   15   16  0  0  0  0            999 V3000
M  V30 BEGIN CTAB
M  V30 COUNTS 15 16 0 0 0
M  V30 BEGIN ATOM
M  V30 1 C -2.5391 -0.1953 0.0000 0
M  V30 2 C -1.7578 -1.3672 0.0000 0
M  V30 3 C -1.7578 0.9766 0.0000 0
M  V30 4 C -0.3906 -0.7812 0.0000 0
M  V30 5 C -0.3906 0.5859 0.0000 0
M  V30 6 C 0.7812 1.1719 0.0000 0
M  V30 7 C 1.9531 -0.7812 0.0000 0
M  V30 8 N 0.7812 -1.5625 0.0000 0
M  V30 9 N 1.9531 0.3906 0.0000 0
M  V30 10 H -3.5156 -0.1953 0.0000 0
M  V30 11 H -2.1484 2.1484 0.0000 0
M  V30 12 H -1.9531 -2.3438 0.0000 0
M  V30 13 H 0.9766 2.3438 0.0000 0
M  V30 14 H 2.9297 -1.3672 0.0000 0
M  V30 15 H 2.7344 0.9766 0.0000 0
M  V30 END ATOM
M  V30 BEGIN BOND
M  V30 1 1 1 2
M  V30 2 1 1 3
M  V30 3 1 1 10
M  V30 4 1 2 4
M  V30 5 1 2 12
M  V30 6 1 3 5
M  V30 7 1 3 11
M  V30 8 1 4 5
M  V30 9 2 4 8
M  V30 10 1 5 6
M  V30 11 1 6 9
M  V30 12 1 6 13
M  V30 13 1 7 8
M  V30 14 1 7 9
M  V30 15 1 7 14
M  V30 16 1 9 15
M  V30 END BOND
M  V30 END CTAB
M  END
>  <ID>
730
$$$$
Structure_731
Score 	 4.0, smilesprid 	smiles	 smilestrue 	smiles	 similartanimoto 	0	 similardice 	0

   15   16  0  0  0  0            999 V3000
M  V30 BEGIN CTAB
M  V30 COUNTS 15 16 0 0 0
M  V30 BEGIN ATOM
M  V30 1 C -2.5391 -0.1953 0.0000 0
M  V30 2 C -1.7578 -1.3672 0.0000 0
M  V30 3 C -1.7578 0.9766 0.0000 0
M  V30 4 C -0.3906 -0.7812 0.0000 0
M  V30 5 C -0.3906 0.5859 0.0000 0
M  V30 6 C 0.7812 1.1719 0.0000 0
M  V30 7 C 1.9531 -0.7812 0.0000 0
M  V30 8 N 0.7812 -1.5625 0.0000 0
M  V30 9 N 1.9531 0.3906 0.0000 0
M  V30 10 H -3.5156 -0.1953 0.0000 0
M  V30 11 H -2.1484 2.1484 0.0000 0
M  V30 12 H -1.9531 -2.3438 0.0000 0
M  V30 13 H 0.9766 2.3438 0.0000 0
M  V30 14 H 2.9297 -1.3672 0.0000 0
M  V30 15 H 2.7344 0.9766 0.0000 0
M  V30 END ATOM
M  V30 BEGIN BOND
M  V30 1 2 1 2
M  V30 2 1 1 3
M  V30 3 1 1 10
M  V30 4 1 2 4
M  V30 5 1 2 12
M  V30 6 1 3 5
M  V30 7 1 3 11
M  V30 8 1 4 5
M  V30 9 2 4 8
M  V30 10 1 5 6
M  V30 11 1 6 9
M  V30 12 1 6 13
M  V30 13 1 7 8
M  V30 14 1 7 9
M  V30 15 1 7 14
M  V30 16 1 9 15
M  V30 END BOND
M  V30 END CTAB
M  END
>  <ID>
731
$$$$
Structure_732
Score 	 6.0, smilesprid 	smiles	 smilestrue 	smiles	 similartanimoto 	0	 similardice 	0

   15   16  0  0  0  0            999 V3000
M  V30 BEGIN CTAB
M  V30 COUNTS 15 16 0 0 0
M  V30 BEGIN ATOM
M  V30 1 C -2.5391 -0.1953 0.0000 0
M  V30 2 C -1.7578 -1.3672 0.0000 0
M  V30 3 C -1.7578 0.9766 0.0000 0
M  V30 4 C -0.3906 -0.7812 0.0000 0
M  V30 5 C -0.3906 0.5859 0.0000 0
M  V30 6 C 0.7812 1.1719 0.0000 0
M  V30 7 C 1.9531 -0.7812 0.0000 0
M  V30 8 N 0.7812 -1.5625 0.0000 0
M  V30 9 N 1.9531 0.3906 0.0000 0
M  V30 10 H -3.5156 -0.1953 0.0000 0
M  V30 11 H -2.1484 2.1484 0.0000 0
M  V30 12 H -1.9531 -2.3438 0.0000 0
M  V30 13 H 0.9766 2.3438 0.0000 0
M  V30 14 H 2.9297 -1.3672 0.0000 0
M  V30 15 H 2.7344 0.9766 0.0000 0
M  V30 END ATOM
M  V30 BEGIN BOND
M  V30 1 3 1 2
M  V30 2 1 1 3
M  V30 3 1 1 10
M  V30 4 1 2 4
M  V30 5 1 2 12
M  V30 6 1 3 5
M  V30 7 1 3 11
M  V30 8 1 4 5
M  V30 9 2 4 8
M  V30 10 1 5 6
M  V30 11 1 6 9
M  V30 12 1 6 13
M  V30 13 1 7 8
M  V30 14 1 7 9
M  V30 15 1 7 14
M  V30 16 1 9 15
M  V30 END BOND
M  V30 END CTAB
M  END
>  <ID>
732
$$$$
Structure_733
Score 	 4.0, smilesprid 	smiles	 smilestrue 	smiles	 similartanimoto 	0	 similardice 	0

   15   16  0  0  0  0            999 V3000
M  V30 BEGIN CTAB
M  V30 COUNTS 15 16 0 0 0
M  V30 BEGIN ATOM
M  V30 1 C -2.5391 -0.1953 0.0000 0
M  V30 2 C -1.7578 -1.3672 0.0000 0
M  V30 3 C -1.7578 0.9766 0.0000 0
M  V30 4 C -0.3906 -0.7812 0.0000 0
M  V30 5 C -0.3906 0.5859 0.0000 0
M  V30 6 C 0.7812 1.1719 0.0000 0
M  V30 7 C 1.9531 -0.7812 0.0000 0
M  V30 8 N 0.7812 -1.5625 0.0000 0
M  V30 9 N 1.9531 0.3906 0.0000 0
M  V30 10 H -3.5156 -0.1953 0.0000 0
M  V30 11 H -2.1484 2.1484 0.0000 0
M  V30 12 H -1.9531 -2.3438 0.0000 0
M  V30 13 H 0.9766 2.3438 0.0000 0
M  V30 14 H 2.9297 -1.3672 0.0000 0
M  V30 15 H 2.7344 0.9766 0.0000 0
M  V30 END ATOM
M  V30 BEGIN BOND
M  V30 1 1 1 2
M  V30 2 2 1 3
M  V30 3 1 1 10
M  V30 4 1 2 4
M  V30 5 1 2 12
M  V30 6 1 3 5
M  V30 7 1 3 11
M  V30 8 1 4 5
M  V30 9 2 4 8
M  V30 10 1 5 6
M  V30 11 1 6 9
M  V30 12 1 6 13
M  V30 13 1 7 8
M  V30 14 1 7 9
M  V30 15 1 7 14
M  V30 16 1 9 15
M  V30 END BOND
M  V30 END CTAB
M  END
>  <ID>
733
$$$$
Structure_734
Score 	 4.0, smilesprid 	smiles	 smilestrue 	smiles	 similartanimoto 	0	 similardice 	0

   15   16  0  0  0  0            999 V3000
M  V30 BEGIN CTAB
M  V30 COUNTS 15 16 0 0 0
M  V30 BEGIN ATOM
M  V30 1 C -2.5391 -0.1953 0.0000 0
M  V30 2 C -1.7578 -1.3672 0.0000 0
M  V30 3 C -1.7578 0.9766 0.0000 0
M  V30 4 C -0.3906 -0.7812 0.0000 0
M  V30 5 C -0.3906 0.5859 0.0000 0
M  V30 6 C 0.7812 1.1719 0.0000 0
M  V30 7 C 1.9531 -0.7812 0.0000 0
M  V30 8 N 0.7812 -1.5625 0.0000 0
M  V30 9 N 1.9531 0.3906 0.0000 0
M  V30 10 H -3.5156 -0.1953 0.0000 0
M  V30 11 H -2.1484 2.1484 0.0000 0
M  V30 12 H -1.9531 -2.3438 0.0000 0
M  V30 13 H 0.9766 2.3438 0.0000 0
M  V30 14 H 2.9297 -1.3672 0.0000 0
M  V30 15 H 2.7344 0.9766 0.0000 0
M  V30 END ATOM
M  V30 BEGIN BOND
M  V30 1 2 1 2
M  V30 2 2 1 3
M  V30 3 1 1 10
M  V30 4 1 2 4
M  V30 5 1 2 12
M  V30 6 1 3 5
M  V30 7 1 3 11
M  V30 8 1 4 5
M  V30 9 2 4 8
M  V30 10 1 5 6
M  V30 11 1 6 9
M  V30 12 1 6 13
M  V30 13 1 7 8
M  V30 14 1 7 9
M  V30 15 1 7 14
M  V30 16 1 9 15
M  V30 END BOND
M  V30 END CTAB
M  END
>  <ID>
734
$$$$
Structure_735
Score 	 6.0, smilesprid 	smiles	 smilestrue 	smiles	 similartanimoto 	0	 similardice 	0

   15   16  0  0  0  0            999 V3000
M  V30 BEGIN CTAB
M  V30 COUNTS 15 16 0 0 0
M  V30 BEGIN ATOM
M  V30 1 C -2.5391 -0.1953 0.0000 0
M  V30 2 C -1.7578 -1.3672 0.0000 0
M  V30 3 C -1.7578 0.9766 0.0000 0
M  V30 4 C -0.3906 -0.7812 0.0000 0
M  V30 5 C -0.3906 0.5859 0.0000 0
M  V30 6 C 0.7812 1.1719 0.0000 0
M  V30 7 C 1.9531 -0.7812 0.0000 0
M  V30 8 N 0.7812 -1.5625 0.0000 0
M  V30 9 N 1.9531 0.3906 0.0000 0
M  V30 10 H -3.5156 -0.1953 0.0000 0
M  V30 11 H -2.1484 2.1484 0.0000 0
M  V30 12 H -1.9531 -2.3438 0.0000 0
M  V30 13 H 0.9766 2.3438 0.0000 0
M  V30 14 H 2.9297 -1.3672 0.0000 0
M  V30 15 H 2.7344 0.9766 0.0000 0
M  V30 END ATOM
M  V30 BEGIN BOND
M  V30 1 3 1 2
M  V30 2 2 1 3
M  V30 3 1 1 10
M  V30 4 1 2 4
M  V30 5 1 2 12
M  V30 6 1 3 5
M  V30 7 1 3 11
M  V30 8 1 4 5
M  V30 9 2 4 8
M  V30 10 1 5 6
M  V30 11 1 6 9
M  V30 12 1 6 13
M  V30 13 1 7 8
M  V30 14 1 7 9
M  V30 15 1 7 14
M  V30 16 1 9 15
M  V30 END BOND
M  V30 END CTAB
M  END
>  <ID>
735
$$$$
Structure_736
Score 	 6.0, smilesprid 	smiles	 smilestrue 	smiles	 similartanimoto 	0	 similardice 	0

   15   16  0  0  0  0            999 V3000
M  V30 BEGIN CTAB
M  V30 COUNTS 15 16 0 0 0
M  V30 BEGIN ATOM
M  V30 1 C -2.5391 -0.1953 0.0000 0
M  V30 2 C -1.7578 -1.3672 0.0000 0
M  V30 3 C -1.7578 0.9766 0.0000 0
M  V30 4 C -0.3906 -0.7812 0.0000 0
M  V30 5 C -0.3906 0.5859 0.0000 0
M  V30 6 C 0.7812 1.1719 0.0000 0
M  V30 7 C 1.9531 -0.7812 0.0000 0
M  V30 8 N 0.7812 -1.5625 0.0000 0
M  V30 9 N 1.9531 0.3906 0.0000 0
M  V30 10 H -3.5156 -0.1953 0.0000 0
M  V30 11 H -2.1484 2.1484 0.0000 0
M  V30 12 H -1.9531 -2.3438 0.0000 0
M  V30 13 H 0.9766 2.3438 0.0000 0
M  V30 14 H 2.9297 -1.3672 0.0000 0
M  V30 15 H 2.7344 0.9766 0.0000 0
M  V30 END ATOM
M  V30 BEGIN BOND
M  V30 1 1 1 2
M  V30 2 3 1 3
M  V30 3 1 1 10
M  V30 4 1 2 4
M  V30 5 1 2 12
M  V30 6 1 3 5
M  V30 7 1 3 11
M  V30 8 1 4 5
M  V30 9 2 4 8
M  V30 10 1 5 6
M  V30 11 1 6 9
M  V30 12 1 6 13
M  V30 13 1 7 8
M  V30 14 1 7 9
M  V30 15 1 7 14
M  V30 16 1 9 15
M  V30 END BOND
M  V30 END CTAB
M  END
>  <ID>
736
$$$$
Structure_737
Score 	 6.0, smilesprid 	smiles	 smilestrue 	smiles	 similartanimoto 	0	 similardice 	0

   15   16  0  0  0  0            999 V3000
M  V30 BEGIN CTAB
M  V30 COUNTS 15 16 0 0 0
M  V30 BEGIN ATOM
M  V30 1 C -2.5391 -0.1953 0.0000 0
M  V30 2 C -1.7578 -1.3672 0.0000 0
M  V30 3 C -1.7578 0.9766 0.0000 0
M  V30 4 C -0.3906 -0.7812 0.0000 0
M  V30 5 C -0.3906 0.5859 0.0000 0
M  V30 6 C 0.7812 1.1719 0.0000 0
M  V30 7 C 1.9531 -0.7812 0.0000 0
M  V30 8 N 0.7812 -1.5625 0.0000 0
M  V30 9 N 1.9531 0.3906 0.0000 0
M  V30 10 H -3.5156 -0.1953 0.0000 0
M  V30 11 H -2.1484 2.1484 0.0000 0
M  V30 12 H -1.9531 -2.3438 0.0000 0
M  V30 13 H 0.9766 2.3438 0.0000 0
M  V30 14 H 2.9297 -1.3672 0.0000 0
M  V30 15 H 2.7344 0.9766 0.0000 0
M  V30 END ATOM
M  V30 BEGIN BOND
M  V30 1 2 1 2
M  V30 2 3 1 3
M  V30 3 1 1 10
M  V30 4 1 2 4
M  V30 5 1 2 12
M  V30 6 1 3 5
M  V30 7 1 3 11
M  V30 8 1 4 5
M  V30 9 2 4 8
M  V30 10 1 5 6
M  V30 11 1 6 9
M  V30 12 1 6 13
M  V30 13 1 7 8
M  V30 14 1 7 9
M  V30 15 1 7 14
M  V30 16 1 9 15
M  V30 END BOND
M  V30 END CTAB
M  END
>  <ID>
737
$$$$
Structure_738
Score 	 8.0, smilesprid 	smiles	 smilestrue 	smiles	 similartanimoto 	0	 similardice 	0

   15   16  0  0  0  0            999 V3000
M  V30 BEGIN CTAB
M  V30 COUNTS 15 16 0 0 0
M  V30 BEGIN ATOM
M  V30 1 C -2.5391 -0.1953 0.0000 0
M  V30 2 C -1.7578 -1.3672 0.0000 0
M  V30 3 C -1.7578 0.9766 0.0000 0
M  V30 4 C -0.3906 -0.7812 0.0000 0
M  V30 5 C -0.3906 0.5859 0.0000 0
M  V30 6 C 0.7812 1.1719 0.0000 0
M  V30 7 C 1.9531 -0.7812 0.0000 0
M  V30 8 N 0.7812 -1.5625 0.0000 0
M  V30 9 N 1.9531 0.3906 0.0000 0
M  V30 10 H -3.5156 -0.1953 0.0000 0
M  V30 11 H -2.1484 2.1484 0.0000 0
M  V30 12 H -1.9531 -2.3438 0.0000 0
M  V30 13 H 0.9766 2.3438 0.0000 0
M  V30 14 H 2.9297 -1.3672 0.0000 0
M  V30 15 H 2.7344 0.9766 0.0000 0
M  V30 END ATOM
M  V30 BEGIN BOND
M  V30 1 3 1 2
M  V30 2 3 1 3
M  V30 3 1 1 10
M  V30 4 1 2 4
M  V30 5 1 2 12
M  V30 6 1 3 5
M  V30 7 1 3 11
M  V30 8 1 4 5
M  V30 9 2 4 8
M  V30 10 1 5 6
M  V30 11 1 6 9
M  V30 12 1 6 13
M  V30 13 1 7 8
M  V30 14 1 7 9
M  V30 15 1 7 14
M  V30 16 1 9 15
M  V30 END BOND
M  V30 END CTAB
M  END
>  <ID>
738
$$$$
Structure_739
Score 	 4.0, smilesprid 	smiles	 smilestrue 	smiles	 similartanimoto 	0	 similardice 	0

   15   16  0  0  0  0            999 V3000
M  V30 BEGIN CTAB
M  V30 COUNTS 15 16 0 0 0
M  V30 BEGIN ATOM
M  V30 1 C -2.5391 -0.1953 0.0000 0
M  V30 2 C -1.7578 -1.3672 0.0000 0
M  V30 3 C -1.7578 0.9766 0.0000 0
M  V30 4 C -0.3906 -0.7812 0.0000 0
M  V30 5 C -0.3906 0.5859 0.0000 0
M  V30 6 C 0.7812 1.1719 0.0000 0
M  V30 7 C 1.9531 -0.7812 0.0000 0
M  V30 8 N 0.7812 -1.5625 0.0000 0
M  V30 9 N 1.9531 0.3906 0.0000 0
M  V30 10 H -3.5156 -0.1953 0.0000 0
M  V30 11 H -2.1484 2.1484 0.0000 0
M  V30 12 H -1.9531 -2.3438 0.0000 0
M  V30 13 H 0.9766 2.3438 0.0000 0
M  V30 14 H 2.9297 -1.3672 0.0000 0
M  V30 15 H 2.7344 0.9766 0.0000 0
M  V30 END ATOM
M  V30 BEGIN BOND
M  V30 1 1 1 2
M  V30 2 1 1 3
M  V30 3 1 1 10
M  V30 4 1 2 4
M  V30 5 1 2 12
M  V30 6 2 3 5
M  V30 7 1 3 11
M  V30 8 1 4 5
M  V30 9 2 4 8
M  V30 10 1 5 6
M  V30 11 1 6 9
M  V30 12 1 6 13
M  V30 13 1 7 8
M  V30 14 1 7 9
M  V30 15 1 7 14
M  V30 16 1 9 15
M  V30 END BOND
M  V30 END CTAB
M  END
>  <ID>
739
$$$$
Structure_740
Score 	 2.0, smilesprid 	smiles	 smilestrue 	smiles	 similartanimoto 	0	 similardice 	0

   15   16  0  0  0  0            999 V3000
M  V30 BEGIN CTAB
M  V30 COUNTS 15 16 0 0 0
M  V30 BEGIN ATOM
M  V30 1 C -2.5391 -0.1953 0.0000 0
M  V30 2 C -1.7578 -1.3672 0.0000 0
M  V30 3 C -1.7578 0.9766 0.0000 0
M  V30 4 C -0.3906 -0.7812 0.0000 0
M  V30 5 C -0.3906 0.5859 0.0000 0
M  V30 6 C 0.7812 1.1719 0.0000 0
M  V30 7 C 1.9531 -0.7812 0.0000 0
M  V30 8 N 0.7812 -1.5625 0.0000 0
M  V30 9 N 1.9531 0.3906 0.0000 0
M  V30 10 H -3.5156 -0.1953 0.0000 0
M  V30 11 H -2.1484 2.1484 0.0000 0
M  V30 12 H -1.9531 -2.3438 0.0000 0
M  V30 13 H 0.9766 2.3438 0.0000 0
M  V30 14 H 2.9297 -1.3672 0.0000 0
M  V30 15 H 2.7344 0.9766 0.0000 0
M  V30 END ATOM
M  V30 BEGIN BOND
M  V30 1 2 1 2
M  V30 2 1 1 3
M  V30 3 1 1 10
M  V30 4 1 2 4
M  V30 5 1 2 12
M  V30 6 2 3 5
M  V30 7 1 3 11
M  V30 8 1 4 5
M  V30 9 2 4 8
M  V30 10 1 5 6
M  V30 11 1 6 9
M  V30 12 1 6 13
M  V30 13 1 7 8
M  V30 14 1 7 9
M  V30 15 1 7 14
M  V30 16 1 9 15
M  V30 END BOND
M  V30 END CTAB
M  END
>  <ID>
740
$$$$
Structure_741
Score 	 4.0, smilesprid 	smiles	 smilestrue 	smiles	 similartanimoto 	0	 similardice 	0

   15   16  0  0  0  0            999 V3000
M  V30 BEGIN CTAB
M  V30 COUNTS 15 16 0 0 0
M  V30 BEGIN ATOM
M  V30 1 C -2.5391 -0.1953 0.0000 0
M  V30 2 C -1.7578 -1.3672 0.0000 0
M  V30 3 C -1.7578 0.9766 0.0000 0
M  V30 4 C -0.3906 -0.7812 0.0000 0
M  V30 5 C -0.3906 0.5859 0.0000 0
M  V30 6 C 0.7812 1.1719 0.0000 0
M  V30 7 C 1.9531 -0.7812 0.0000 0
M  V30 8 N 0.7812 -1.5625 0.0000 0
M  V30 9 N 1.9531 0.3906 0.0000 0
M  V30 10 H -3.5156 -0.1953 0.0000 0
M  V30 11 H -2.1484 2.1484 0.0000 0
M  V30 12 H -1.9531 -2.3438 0.0000 0
M  V30 13 H 0.9766 2.3438 0.0000 0
M  V30 14 H 2.9297 -1.3672 0.0000 0
M  V30 15 H 2.7344 0.9766 0.0000 0
M  V30 END ATOM
M  V30 BEGIN BOND
M  V30 1 3 1 2
M  V30 2 1 1 3
M  V30 3 1 1 10
M  V30 4 1 2 4
M  V30 5 1 2 12
M  V30 6 2 3 5
M  V30 7 1 3 11
M  V30 8 1 4 5
M  V30 9 2 4 8
M  V30 10 1 5 6
M  V30 11 1 6 9
M  V30 12 1 6 13
M  V30 13 1 7 8
M  V30 14 1 7 9
M  V30 15 1 7 14
M  V30 16 1 9 15
M  V30 END BOND
M  V30 END CTAB
M  END
>  <ID>
741
$$$$
Structure_742
Score 	 4.0, smilesprid 	smiles	 smilestrue 	smiles	 similartanimoto 	0	 similardice 	0

   15   16  0  0  0  0            999 V3000
M  V30 BEGIN CTAB
M  V30 COUNTS 15 16 0 0 0
M  V30 BEGIN ATOM
M  V30 1 C -2.5391 -0.1953 0.0000 0
M  V30 2 C -1.7578 -1.3672 0.0000 0
M  V30 3 C -1.7578 0.9766 0.0000 0
M  V30 4 C -0.3906 -0.7812 0.0000 0
M  V30 5 C -0.3906 0.5859 0.0000 0
M  V30 6 C 0.7812 1.1719 0.0000 0
M  V30 7 C 1.9531 -0.7812 0.0000 0
M  V30 8 N 0.7812 -1.5625 0.0000 0
M  V30 9 N 1.9531 0.3906 0.0000 0
M  V30 10 H -3.5156 -0.1953 0.0000 0
M  V30 11 H -2.1484 2.1484 0.0000 0
M  V30 12 H -1.9531 -2.3438 0.0000 0
M  V30 13 H 0.9766 2.3438 0.0000 0
M  V30 14 H 2.9297 -1.3672 0.0000 0
M  V30 15 H 2.7344 0.9766 0.0000 0
M  V30 END ATOM
M  V30 BEGIN BOND
M  V30 1 1 1 2
M  V30 2 2 1 3
M  V30 3 1 1 10
M  V30 4 1 2 4
M  V30 5 1 2 12
M  V30 6 2 3 5
M  V30 7 1 3 11
M  V30 8 1 4 5
M  V30 9 2 4 8
M  V30 10 1 5 6
M  V30 11 1 6 9
M  V30 12 1 6 13
M  V30 13 1 7 8
M  V30 14 1 7 9
M  V30 15 1 7 14
M  V30 16 1 9 15
M  V30 END BOND
M  V30 END CTAB
M  END
>  <ID>
742
$$$$
Structure_743
Score 	 4.0, smilesprid 	smiles	 smilestrue 	smiles	 similartanimoto 	0	 similardice 	0

   15   16  0  0  0  0            999 V3000
M  V30 BEGIN CTAB
M  V30 COUNTS 15 16 0 0 0
M  V30 BEGIN ATOM
M  V30 1 C -2.5391 -0.1953 0.0000 0
M  V30 2 C -1.7578 -1.3672 0.0000 0
M  V30 3 C -1.7578 0.9766 0.0000 0
M  V30 4 C -0.3906 -0.7812 0.0000 0
M  V30 5 C -0.3906 0.5859 0.0000 0
M  V30 6 C 0.7812 1.1719 0.0000 0
M  V30 7 C 1.9531 -0.7812 0.0000 0
M  V30 8 N 0.7812 -1.5625 0.0000 0
M  V30 9 N 1.9531 0.3906 0.0000 0
M  V30 10 H -3.5156 -0.1953 0.0000 0
M  V30 11 H -2.1484 2.1484 0.0000 0
M  V30 12 H -1.9531 -2.3438 0.0000 0
M  V30 13 H 0.9766 2.3438 0.0000 0
M  V30 14 H 2.9297 -1.3672 0.0000 0
M  V30 15 H 2.7344 0.9766 0.0000 0
M  V30 END ATOM
M  V30 BEGIN BOND
M  V30 1 2 1 2
M  V30 2 2 1 3
M  V30 3 1 1 10
M  V30 4 1 2 4
M  V30 5 1 2 12
M  V30 6 2 3 5
M  V30 7 1 3 11
M  V30 8 1 4 5
M  V30 9 2 4 8
M  V30 10 1 5 6
M  V30 11 1 6 9
M  V30 12 1 6 13
M  V30 13 1 7 8
M  V30 14 1 7 9
M  V30 15 1 7 14
M  V30 16 1 9 15
M  V30 END BOND
M  V30 END CTAB
M  END
>  <ID>
743
$$$$
Structure_744
Score 	 6.0, smilesprid 	smiles	 smilestrue 	smiles	 similartanimoto 	0	 similardice 	0

   15   16  0  0  0  0            999 V3000
M  V30 BEGIN CTAB
M  V30 COUNTS 15 16 0 0 0
M  V30 BEGIN ATOM
M  V30 1 C -2.5391 -0.1953 0.0000 0
M  V30 2 C -1.7578 -1.3672 0.0000 0
M  V30 3 C -1.7578 0.9766 0.0000 0
M  V30 4 C -0.3906 -0.7812 0.0000 0
M  V30 5 C -0.3906 0.5859 0.0000 0
M  V30 6 C 0.7812 1.1719 0.0000 0
M  V30 7 C 1.9531 -0.7812 0.0000 0
M  V30 8 N 0.7812 -1.5625 0.0000 0
M  V30 9 N 1.9531 0.3906 0.0000 0
M  V30 10 H -3.5156 -0.1953 0.0000 0
M  V30 11 H -2.1484 2.1484 0.0000 0
M  V30 12 H -1.9531 -2.3438 0.0000 0
M  V30 13 H 0.9766 2.3438 0.0000 0
M  V30 14 H 2.9297 -1.3672 0.0000 0
M  V30 15 H 2.7344 0.9766 0.0000 0
M  V30 END ATOM
M  V30 BEGIN BOND
M  V30 1 3 1 2
M  V30 2 2 1 3
M  V30 3 1 1 10
M  V30 4 1 2 4
M  V30 5 1 2 12
M  V30 6 2 3 5
M  V30 7 1 3 11
M  V30 8 1 4 5
M  V30 9 2 4 8
M  V30 10 1 5 6
M  V30 11 1 6 9
M  V30 12 1 6 13
M  V30 13 1 7 8
M  V30 14 1 7 9
M  V30 15 1 7 14
M  V30 16 1 9 15
M  V30 END BOND
M  V30 END CTAB
M  END
>  <ID>
744
$$$$
Structure_745
Score 	 6.0, smilesprid 	smiles	 smilestrue 	smiles	 similartanimoto 	0	 similardice 	0

   15   16  0  0  0  0            999 V3000
M  V30 BEGIN CTAB
M  V30 COUNTS 15 16 0 0 0
M  V30 BEGIN ATOM
M  V30 1 C -2.5391 -0.1953 0.0000 0
M  V30 2 C -1.7578 -1.3672 0.0000 0
M  V30 3 C -1.7578 0.9766 0.0000 0
M  V30 4 C -0.3906 -0.7812 0.0000 0
M  V30 5 C -0.3906 0.5859 0.0000 0
M  V30 6 C 0.7812 1.1719 0.0000 0
M  V30 7 C 1.9531 -0.7812 0.0000 0
M  V30 8 N 0.7812 -1.5625 0.0000 0
M  V30 9 N 1.9531 0.3906 0.0000 0
M  V30 10 H -3.5156 -0.1953 0.0000 0
M  V30 11 H -2.1484 2.1484 0.0000 0
M  V30 12 H -1.9531 -2.3438 0.0000 0
M  V30 13 H 0.9766 2.3438 0.0000 0
M  V30 14 H 2.9297 -1.3672 0.0000 0
M  V30 15 H 2.7344 0.9766 0.0000 0
M  V30 END ATOM
M  V30 BEGIN BOND
M  V30 1 1 1 2
M  V30 2 3 1 3
M  V30 3 1 1 10
M  V30 4 1 2 4
M  V30 5 1 2 12
M  V30 6 2 3 5
M  V30 7 1 3 11
M  V30 8 1 4 5
M  V30 9 2 4 8
M  V30 10 1 5 6
M  V30 11 1 6 9
M  V30 12 1 6 13
M  V30 13 1 7 8
M  V30 14 1 7 9
M  V30 15 1 7 14
M  V30 16 1 9 15
M  V30 END BOND
M  V30 END CTAB
M  END
>  <ID>
745
$$$$
Structure_746
Score 	 6.0, smilesprid 	smiles	 smilestrue 	smiles	 similartanimoto 	0	 similardice 	0

   15   16  0  0  0  0            999 V3000
M  V30 BEGIN CTAB
M  V30 COUNTS 15 16 0 0 0
M  V30 BEGIN ATOM
M  V30 1 C -2.5391 -0.1953 0.0000 0
M  V30 2 C -1.7578 -1.3672 0.0000 0
M  V30 3 C -1.7578 0.9766 0.0000 0
M  V30 4 C -0.3906 -0.7812 0.0000 0
M  V30 5 C -0.3906 0.5859 0.0000 0
M  V30 6 C 0.7812 1.1719 0.0000 0
M  V30 7 C 1.9531 -0.7812 0.0000 0
M  V30 8 N 0.7812 -1.5625 0.0000 0
M  V30 9 N 1.9531 0.3906 0.0000 0
M  V30 10 H -3.5156 -0.1953 0.0000 0
M  V30 11 H -2.1484 2.1484 0.0000 0
M  V30 12 H -1.9531 -2.3438 0.0000 0
M  V30 13 H 0.9766 2.3438 0.0000 0
M  V30 14 H 2.9297 -1.3672 0.0000 0
M  V30 15 H 2.7344 0.9766 0.0000 0
M  V30 END ATOM
M  V30 BEGIN BOND
M  V30 1 2 1 2
M  V30 2 3 1 3
M  V30 3 1 1 10
M  V30 4 1 2 4
M  V30 5 1 2 12
M  V30 6 2 3 5
M  V30 7 1 3 11
M  V30 8 1 4 5
M  V30 9 2 4 8
M  V30 10 1 5 6
M  V30 11 1 6 9
M  V30 12 1 6 13
M  V30 13 1 7 8
M  V30 14 1 7 9
M  V30 15 1 7 14
M  V30 16 1 9 15
M  V30 END BOND
M  V30 END CTAB
M  END
>  <ID>
746
$$$$
Structure_747
Score 	 8.0, smilesprid 	smiles	 smilestrue 	smiles	 similartanimoto 	0	 similardice 	0

   15   16  0  0  0  0            999 V3000
M  V30 BEGIN CTAB
M  V30 COUNTS 15 16 0 0 0
M  V30 BEGIN ATOM
M  V30 1 C -2.5391 -0.1953 0.0000 0
M  V30 2 C -1.7578 -1.3672 0.0000 0
M  V30 3 C -1.7578 0.9766 0.0000 0
M  V30 4 C -0.3906 -0.7812 0.0000 0
M  V30 5 C -0.3906 0.5859 0.0000 0
M  V30 6 C 0.7812 1.1719 0.0000 0
M  V30 7 C 1.9531 -0.7812 0.0000 0
M  V30 8 N 0.7812 -1.5625 0.0000 0
M  V30 9 N 1.9531 0.3906 0.0000 0
M  V30 10 H -3.5156 -0.1953 0.0000 0
M  V30 11 H -2.1484 2.1484 0.0000 0
M  V30 12 H -1.9531 -2.3438 0.0000 0
M  V30 13 H 0.9766 2.3438 0.0000 0
M  V30 14 H 2.9297 -1.3672 0.0000 0
M  V30 15 H 2.7344 0.9766 0.0000 0
M  V30 END ATOM
M  V30 BEGIN BOND
M  V30 1 3 1 2
M  V30 2 3 1 3
M  V30 3 1 1 10
M  V30 4 1 2 4
M  V30 5 1 2 12
M  V30 6 2 3 5
M  V30 7 1 3 11
M  V30 8 1 4 5
M  V30 9 2 4 8
M  V30 10 1 5 6
M  V30 11 1 6 9
M  V30 12 1 6 13
M  V30 13 1 7 8
M  V30 14 1 7 9
M  V30 15 1 7 14
M  V30 16 1 9 15
M  V30 END BOND
M  V30 END CTAB
M  END
>  <ID>
747
$$$$
Structure_748
Score 	 6.0, smilesprid 	smiles	 smilestrue 	smiles	 similartanimoto 	0	 similardice 	0

   15   16  0  0  0  0            999 V3000
M  V30 BEGIN CTAB
M  V30 COUNTS 15 16 0 0 0
M  V30 BEGIN ATOM
M  V30 1 C -2.5391 -0.1953 0.0000 0
M  V30 2 C -1.7578 -1.3672 0.0000 0
M  V30 3 C -1.7578 0.9766 0.0000 0
M  V30 4 C -0.3906 -0.7812 0.0000 0
M  V30 5 C -0.3906 0.5859 0.0000 0
M  V30 6 C 0.7812 1.1719 0.0000 0
M  V30 7 C 1.9531 -0.7812 0.0000 0
M  V30 8 N 0.7812 -1.5625 0.0000 0
M  V30 9 N 1.9531 0.3906 0.0000 0
M  V30 10 H -3.5156 -0.1953 0.0000 0
M  V30 11 H -2.1484 2.1484 0.0000 0
M  V30 12 H -1.9531 -2.3438 0.0000 0
M  V30 13 H 0.9766 2.3438 0.0000 0
M  V30 14 H 2.9297 -1.3672 0.0000 0
M  V30 15 H 2.7344 0.9766 0.0000 0
M  V30 END ATOM
M  V30 BEGIN BOND
M  V30 1 1 1 2
M  V30 2 1 1 3
M  V30 3 1 1 10
M  V30 4 1 2 4
M  V30 5 1 2 12
M  V30 6 3 3 5
M  V30 7 1 3 11
M  V30 8 1 4 5
M  V30 9 2 4 8
M  V30 10 1 5 6
M  V30 11 1 6 9
M  V30 12 1 6 13
M  V30 13 1 7 8
M  V30 14 1 7 9
M  V30 15 1 7 14
M  V30 16 1 9 15
M  V30 END BOND
M  V30 END CTAB
M  END
>  <ID>
748
$$$$
Structure_749
Score 	 4.0, smilesprid 	smiles	 smilestrue 	smiles	 similartanimoto 	0	 similardice 	0

   15   16  0  0  0  0            999 V3000
M  V30 BEGIN CTAB
M  V30 COUNTS 15 16 0 0 0
M  V30 BEGIN ATOM
M  V30 1 C -2.5391 -0.1953 0.0000 0
M  V30 2 C -1.7578 -1.3672 0.0000 0
M  V30 3 C -1.7578 0.9766 0.0000 0
M  V30 4 C -0.3906 -0.7812 0.0000 0
M  V30 5 C -0.3906 0.5859 0.0000 0
M  V30 6 C 0.7812 1.1719 0.0000 0
M  V30 7 C 1.9531 -0.7812 0.0000 0
M  V30 8 N 0.7812 -1.5625 0.0000 0
M  V30 9 N 1.9531 0.3906 0.0000 0
M  V30 10 H -3.5156 -0.1953 0.0000 0
M  V30 11 H -2.1484 2.1484 0.0000 0
M  V30 12 H -1.9531 -2.3438 0.0000 0
M  V30 13 H 0.9766 2.3438 0.0000 0
M  V30 14 H 2.9297 -1.3672 0.0000 0
M  V30 15 H 2.7344 0.9766 0.0000 0
M  V30 END ATOM
M  V30 BEGIN BOND
M  V30 1 2 1 2
M  V30 2 1 1 3
M  V30 3 1 1 10
M  V30 4 1 2 4
M  V30 5 1 2 12
M  V30 6 3 3 5
M  V30 7 1 3 11
M  V30 8 1 4 5
M  V30 9 2 4 8
M  V30 10 1 5 6
M  V30 11 1 6 9
M  V30 12 1 6 13
M  V30 13 1 7 8
M  V30 14 1 7 9
M  V30 15 1 7 14
M  V30 16 1 9 15
M  V30 END BOND
M  V30 END CTAB
M  END
>  <ID>
749
$$$$
Structure_750
Score 	 6.0, smilesprid 	smiles	 smilestrue 	smiles	 similartanimoto 	0	 similardice 	0

   15   16  0  0  0  0            999 V3000
M  V30 BEGIN CTAB
M  V30 COUNTS 15 16 0 0 0
M  V30 BEGIN ATOM
M  V30 1 C -2.5391 -0.1953 0.0000 0
M  V30 2 C -1.7578 -1.3672 0.0000 0
M  V30 3 C -1.7578 0.9766 0.0000 0
M  V30 4 C -0.3906 -0.7812 0.0000 0
M  V30 5 C -0.3906 0.5859 0.0000 0
M  V30 6 C 0.7812 1.1719 0.0000 0
M  V30 7 C 1.9531 -0.7812 0.0000 0
M  V30 8 N 0.7812 -1.5625 0.0000 0
M  V30 9 N 1.9531 0.3906 0.0000 0
M  V30 10 H -3.5156 -0.1953 0.0000 0
M  V30 11 H -2.1484 2.1484 0.0000 0
M  V30 12 H -1.9531 -2.3438 0.0000 0
M  V30 13 H 0.9766 2.3438 0.0000 0
M  V30 14 H 2.9297 -1.3672 0.0000 0
M  V30 15 H 2.7344 0.9766 0.0000 0
M  V30 END ATOM
M  V30 BEGIN BOND
M  V30 1 3 1 2
M  V30 2 1 1 3
M  V30 3 1 1 10
M  V30 4 1 2 4
M  V30 5 1 2 12
M  V30 6 3 3 5
M  V30 7 1 3 11
M  V30 8 1 4 5
M  V30 9 2 4 8
M  V30 10 1 5 6
M  V30 11 1 6 9
M  V30 12 1 6 13
M  V30 13 1 7 8
M  V30 14 1 7 9
M  V30 15 1 7 14
M  V30 16 1 9 15
M  V30 END BOND
M  V30 END CTAB
M  END
>  <ID>
750
$$$$
Structure_751
Score 	 6.0, smilesprid 	smiles	 smilestrue 	smiles	 similartanimoto 	0	 similardice 	0

   15   16  0  0  0  0            999 V3000
M  V30 BEGIN CTAB
M  V30 COUNTS 15 16 0 0 0
M  V30 BEGIN ATOM
M  V30 1 C -2.5391 -0.1953 0.0000 0
M  V30 2 C -1.7578 -1.3672 0.0000 0
M  V30 3 C -1.7578 0.9766 0.0000 0
M  V30 4 C -0.3906 -0.7812 0.0000 0
M  V30 5 C -0.3906 0.5859 0.0000 0
M  V30 6 C 0.7812 1.1719 0.0000 0
M  V30 7 C 1.9531 -0.7812 0.0000 0
M  V30 8 N 0.7812 -1.5625 0.0000 0
M  V30 9 N 1.9531 0.3906 0.0000 0
M  V30 10 H -3.5156 -0.1953 0.0000 0
M  V30 11 H -2.1484 2.1484 0.0000 0
M  V30 12 H -1.9531 -2.3438 0.0000 0
M  V30 13 H 0.9766 2.3438 0.0000 0
M  V30 14 H 2.9297 -1.3672 0.0000 0
M  V30 15 H 2.7344 0.9766 0.0000 0
M  V30 END ATOM
M  V30 BEGIN BOND
M  V30 1 1 1 2
M  V30 2 2 1 3
M  V30 3 1 1 10
M  V30 4 1 2 4
M  V30 5 1 2 12
M  V30 6 3 3 5
M  V30 7 1 3 11
M  V30 8 1 4 5
M  V30 9 2 4 8
M  V30 10 1 5 6
M  V30 11 1 6 9
M  V30 12 1 6 13
M  V30 13 1 7 8
M  V30 14 1 7 9
M  V30 15 1 7 14
M  V30 16 1 9 15
M  V30 END BOND
M  V30 END CTAB
M  END
>  <ID>
751
$$$$
Structure_752
Score 	 6.0, smilesprid 	smiles	 smilestrue 	smiles	 similartanimoto 	0	 similardice 	0

   15   16  0  0  0  0            999 V3000
M  V30 BEGIN CTAB
M  V30 COUNTS 15 16 0 0 0
M  V30 BEGIN ATOM
M  V30 1 C -2.5391 -0.1953 0.0000 0
M  V30 2 C -1.7578 -1.3672 0.0000 0
M  V30 3 C -1.7578 0.9766 0.0000 0
M  V30 4 C -0.3906 -0.7812 0.0000 0
M  V30 5 C -0.3906 0.5859 0.0000 0
M  V30 6 C 0.7812 1.1719 0.0000 0
M  V30 7 C 1.9531 -0.7812 0.0000 0
M  V30 8 N 0.7812 -1.5625 0.0000 0
M  V30 9 N 1.9531 0.3906 0.0000 0
M  V30 10 H -3.5156 -0.1953 0.0000 0
M  V30 11 H -2.1484 2.1484 0.0000 0
M  V30 12 H -1.9531 -2.3438 0.0000 0
M  V30 13 H 0.9766 2.3438 0.0000 0
M  V30 14 H 2.9297 -1.3672 0.0000 0
M  V30 15 H 2.7344 0.9766 0.0000 0
M  V30 END ATOM
M  V30 BEGIN BOND
M  V30 1 2 1 2
M  V30 2 2 1 3
M  V30 3 1 1 10
M  V30 4 1 2 4
M  V30 5 1 2 12
M  V30 6 3 3 5
M  V30 7 1 3 11
M  V30 8 1 4 5
M  V30 9 2 4 8
M  V30 10 1 5 6
M  V30 11 1 6 9
M  V30 12 1 6 13
M  V30 13 1 7 8
M  V30 14 1 7 9
M  V30 15 1 7 14
M  V30 16 1 9 15
M  V30 END BOND
M  V30 END CTAB
M  END
>  <ID>
752
$$$$
Structure_753
Score 	 8.0, smilesprid 	smiles	 smilestrue 	smiles	 similartanimoto 	0	 similardice 	0

   15   16  0  0  0  0            999 V3000
M  V30 BEGIN CTAB
M  V30 COUNTS 15 16 0 0 0
M  V30 BEGIN ATOM
M  V30 1 C -2.5391 -0.1953 0.0000 0
M  V30 2 C -1.7578 -1.3672 0.0000 0
M  V30 3 C -1.7578 0.9766 0.0000 0
M  V30 4 C -0.3906 -0.7812 0.0000 0
M  V30 5 C -0.3906 0.5859 0.0000 0
M  V30 6 C 0.7812 1.1719 0.0000 0
M  V30 7 C 1.9531 -0.7812 0.0000 0
M  V30 8 N 0.7812 -1.5625 0.0000 0
M  V30 9 N 1.9531 0.3906 0.0000 0
M  V30 10 H -3.5156 -0.1953 0.0000 0
M  V30 11 H -2.1484 2.1484 0.0000 0
M  V30 12 H -1.9531 -2.3438 0.0000 0
M  V30 13 H 0.9766 2.3438 0.0000 0
M  V30 14 H 2.9297 -1.3672 0.0000 0
M  V30 15 H 2.7344 0.9766 0.0000 0
M  V30 END ATOM
M  V30 BEGIN BOND
M  V30 1 3 1 2
M  V30 2 2 1 3
M  V30 3 1 1 10
M  V30 4 1 2 4
M  V30 5 1 2 12
M  V30 6 3 3 5
M  V30 7 1 3 11
M  V30 8 1 4 5
M  V30 9 2 4 8
M  V30 10 1 5 6
M  V30 11 1 6 9
M  V30 12 1 6 13
M  V30 13 1 7 8
M  V30 14 1 7 9
M  V30 15 1 7 14
M  V30 16 1 9 15
M  V30 END BOND
M  V30 END CTAB
M  END
>  <ID>
753
$$$$
Structure_754
Score 	 8.0, smilesprid 	smiles	 smilestrue 	smiles	 similartanimoto 	0	 similardice 	0

   15   16  0  0  0  0            999 V3000
M  V30 BEGIN CTAB
M  V30 COUNTS 15 16 0 0 0
M  V30 BEGIN ATOM
M  V30 1 C -2.5391 -0.1953 0.0000 0
M  V30 2 C -1.7578 -1.3672 0.0000 0
M  V30 3 C -1.7578 0.9766 0.0000 0
M  V30 4 C -0.3906 -0.7812 0.0000 0
M  V30 5 C -0.3906 0.5859 0.0000 0
M  V30 6 C 0.7812 1.1719 0.0000 0
M  V30 7 C 1.9531 -0.7812 0.0000 0
M  V30 8 N 0.7812 -1.5625 0.0000 0
M  V30 9 N 1.9531 0.3906 0.0000 0
M  V30 10 H -3.5156 -0.1953 0.0000 0
M  V30 11 H -2.1484 2.1484 0.0000 0
M  V30 12 H -1.9531 -2.3438 0.0000 0
M  V30 13 H 0.9766 2.3438 0.0000 0
M  V30 14 H 2.9297 -1.3672 0.0000 0
M  V30 15 H 2.7344 0.9766 0.0000 0
M  V30 END ATOM
M  V30 BEGIN BOND
M  V30 1 1 1 2
M  V30 2 3 1 3
M  V30 3 1 1 10
M  V30 4 1 2 4
M  V30 5 1 2 12
M  V30 6 3 3 5
M  V30 7 1 3 11
M  V30 8 1 4 5
M  V30 9 2 4 8
M  V30 10 1 5 6
M  V30 11 1 6 9
M  V30 12 1 6 13
M  V30 13 1 7 8
M  V30 14 1 7 9
M  V30 15 1 7 14
M  V30 16 1 9 15
M  V30 END BOND
M  V30 END CTAB
M  END
>  <ID>
754
$$$$
Structure_755
Score 	 8.0, smilesprid 	smiles	 smilestrue 	smiles	 similartanimoto 	0	 similardice 	0

   15   16  0  0  0  0            999 V3000
M  V30 BEGIN CTAB
M  V30 COUNTS 15 16 0 0 0
M  V30 BEGIN ATOM
M  V30 1 C -2.5391 -0.1953 0.0000 0
M  V30 2 C -1.7578 -1.3672 0.0000 0
M  V30 3 C -1.7578 0.9766 0.0000 0
M  V30 4 C -0.3906 -0.7812 0.0000 0
M  V30 5 C -0.3906 0.5859 0.0000 0
M  V30 6 C 0.7812 1.1719 0.0000 0
M  V30 7 C 1.9531 -0.7812 0.0000 0
M  V30 8 N 0.7812 -1.5625 0.0000 0
M  V30 9 N 1.9531 0.3906 0.0000 0
M  V30 10 H -3.5156 -0.1953 0.0000 0
M  V30 11 H -2.1484 2.1484 0.0000 0
M  V30 12 H -1.9531 -2.3438 0.0000 0
M  V30 13 H 0.9766 2.3438 0.0000 0
M  V30 14 H 2.9297 -1.3672 0.0000 0
M  V30 15 H 2.7344 0.9766 0.0000 0
M  V30 END ATOM
M  V30 BEGIN BOND
M  V30 1 2 1 2
M  V30 2 3 1 3
M  V30 3 1 1 10
M  V30 4 1 2 4
M  V30 5 1 2 12
M  V30 6 3 3 5
M  V30 7 1 3 11
M  V30 8 1 4 5
M  V30 9 2 4 8
M  V30 10 1 5 6
M  V30 11 1 6 9
M  V30 12 1 6 13
M  V30 13 1 7 8
M  V30 14 1 7 9
M  V30 15 1 7 14
M  V30 16 1 9 15
M  V30 END BOND
M  V30 END CTAB
M  END
>  <ID>
755
$$$$
Structure_756
Score 	 10.0, smilesprid 	smiles	 smilestrue 	smiles	 similartanimoto 	0	 similardice 	0

   15   16  0  0  0  0            999 V3000
M  V30 BEGIN CTAB
M  V30 COUNTS 15 16 0 0 0
M  V30 BEGIN ATOM
M  V30 1 C -2.5391 -0.1953 0.0000 0
M  V30 2 C -1.7578 -1.3672 0.0000 0
M  V30 3 C -1.7578 0.9766 0.0000 0
M  V30 4 C -0.3906 -0.7812 0.0000 0
M  V30 5 C -0.3906 0.5859 0.0000 0
M  V30 6 C 0.7812 1.1719 0.0000 0
M  V30 7 C 1.9531 -0.7812 0.0000 0
M  V30 8 N 0.7812 -1.5625 0.0000 0
M  V30 9 N 1.9531 0.3906 0.0000 0
M  V30 10 H -3.5156 -0.1953 0.0000 0
M  V30 11 H -2.1484 2.1484 0.0000 0
M  V30 12 H -1.9531 -2.3438 0.0000 0
M  V30 13 H 0.9766 2.3438 0.0000 0
M  V30 14 H 2.9297 -1.3672 0.0000 0
M  V30 15 H 2.7344 0.9766 0.0000 0
M  V30 END ATOM
M  V30 BEGIN BOND
M  V30 1 3 1 2
M  V30 2 3 1 3
M  V30 3 1 1 10
M  V30 4 1 2 4
M  V30 5 1 2 12
M  V30 6 3 3 5
M  V30 7 1 3 11
M  V30 8 1 4 5
M  V30 9 2 4 8
M  V30 10 1 5 6
M  V30 11 1 6 9
M  V30 12 1 6 13
M  V30 13 1 7 8
M  V30 14 1 7 9
M  V30 15 1 7 14
M  V30 16 1 9 15
M  V30 END BOND
M  V30 END CTAB
M  END
>  <ID>
756
$$$$
Structure_757
Score 	 6.0, smilesprid 	smiles	 smilestrue 	smiles	 similartanimoto 	0	 similardice 	0

   15   16  0  0  0  0            999 V3000
M  V30 BEGIN CTAB
M  V30 COUNTS 15 16 0 0 0
M  V30 BEGIN ATOM
M  V30 1 C -2.5391 -0.1953 0.0000 0
M  V30 2 C -1.7578 -1.3672 0.0000 0
M  V30 3 C -1.7578 0.9766 0.0000 0
M  V30 4 C -0.3906 -0.7812 0.0000 0
M  V30 5 C -0.3906 0.5859 0.0000 0
M  V30 6 C 0.7812 1.1719 0.0000 0
M  V30 7 C 1.9531 -0.7812 0.0000 0
M  V30 8 N 0.7812 -1.5625 0.0000 0
M  V30 9 N 1.9531 0.3906 0.0000 0
M  V30 10 H -3.5156 -0.1953 0.0000 0
M  V30 11 H -2.1484 2.1484 0.0000 0
M  V30 12 H -1.9531 -2.3438 0.0000 0
M  V30 13 H 0.9766 2.3438 0.0000 0
M  V30 14 H 2.9297 -1.3672 0.0000 0
M  V30 15 H 2.7344 0.9766 0.0000 0
M  V30 END ATOM
M  V30 BEGIN BOND
M  V30 1 1 1 2
M  V30 2 1 1 3
M  V30 3 1 1 10
M  V30 4 2 2 4
M  V30 5 1 2 12
M  V30 6 1 3 5
M  V30 7 1 3 11
M  V30 8 1 4 5
M  V30 9 2 4 8
M  V30 10 1 5 6
M  V30 11 1 6 9
M  V30 12 1 6 13
M  V30 13 1 7 8
M  V30 14 1 7 9
M  V30 15 1 7 14
M  V30 16 1 9 15
M  V30 END BOND
M  V30 END CTAB
M  END
>  <ID>
757
$$$$
Structure_758
Score 	 6.0, smilesprid 	smiles	 smilestrue 	smiles	 similartanimoto 	0	 similardice 	0

   15   16  0  0  0  0            999 V3000
M  V30 BEGIN CTAB
M  V30 COUNTS 15 16 0 0 0
M  V30 BEGIN ATOM
M  V30 1 C -2.5391 -0.1953 0.0000 0
M  V30 2 C -1.7578 -1.3672 0.0000 0
M  V30 3 C -1.7578 0.9766 0.0000 0
M  V30 4 C -0.3906 -0.7812 0.0000 0
M  V30 5 C -0.3906 0.5859 0.0000 0
M  V30 6 C 0.7812 1.1719 0.0000 0
M  V30 7 C 1.9531 -0.7812 0.0000 0
M  V30 8 N 0.7812 -1.5625 0.0000 0
M  V30 9 N 1.9531 0.3906 0.0000 0
M  V30 10 H -3.5156 -0.1953 0.0000 0
M  V30 11 H -2.1484 2.1484 0.0000 0
M  V30 12 H -1.9531 -2.3438 0.0000 0
M  V30 13 H 0.9766 2.3438 0.0000 0
M  V30 14 H 2.9297 -1.3672 0.0000 0
M  V30 15 H 2.7344 0.9766 0.0000 0
M  V30 END ATOM
M  V30 BEGIN BOND
M  V30 1 2 1 2
M  V30 2 1 1 3
M  V30 3 1 1 10
M  V30 4 2 2 4
M  V30 5 1 2 12
M  V30 6 1 3 5
M  V30 7 1 3 11
M  V30 8 1 4 5
M  V30 9 2 4 8
M  V30 10 1 5 6
M  V30 11 1 6 9
M  V30 12 1 6 13
M  V30 13 1 7 8
M  V30 14 1 7 9
M  V30 15 1 7 14
M  V30 16 1 9 15
M  V30 END BOND
M  V30 END CTAB
M  END
>  <ID>
758
$$$$
Structure_759
Score 	 8.0, smilesprid 	smiles	 smilestrue 	smiles	 similartanimoto 	0	 similardice 	0

   15   16  0  0  0  0            999 V3000
M  V30 BEGIN CTAB
M  V30 COUNTS 15 16 0 0 0
M  V30 BEGIN ATOM
M  V30 1 C -2.5391 -0.1953 0.0000 0
M  V30 2 C -1.7578 -1.3672 0.0000 0
M  V30 3 C -1.7578 0.9766 0.0000 0
M  V30 4 C -0.3906 -0.7812 0.0000 0
M  V30 5 C -0.3906 0.5859 0.0000 0
M  V30 6 C 0.7812 1.1719 0.0000 0
M  V30 7 C 1.9531 -0.7812 0.0000 0
M  V30 8 N 0.7812 -1.5625 0.0000 0
M  V30 9 N 1.9531 0.3906 0.0000 0
M  V30 10 H -3.5156 -0.1953 0.0000 0
M  V30 11 H -2.1484 2.1484 0.0000 0
M  V30 12 H -1.9531 -2.3438 0.0000 0
M  V30 13 H 0.9766 2.3438 0.0000 0
M  V30 14 H 2.9297 -1.3672 0.0000 0
M  V30 15 H 2.7344 0.9766 0.0000 0
M  V30 END ATOM
M  V30 BEGIN BOND
M  V30 1 3 1 2
M  V30 2 1 1 3
M  V30 3 1 1 10
M  V30 4 2 2 4
M  V30 5 1 2 12
M  V30 6 1 3 5
M  V30 7 1 3 11
M  V30 8 1 4 5
M  V30 9 2 4 8
M  V30 10 1 5 6
M  V30 11 1 6 9
M  V30 12 1 6 13
M  V30 13 1 7 8
M  V30 14 1 7 9
M  V30 15 1 7 14
M  V30 16 1 9 15
M  V30 END BOND
M  V30 END CTAB
M  END
>  <ID>
759
$$$$
Structure_760
Score 	 4.0, smilesprid 	smiles	 smilestrue 	smiles	 similartanimoto 	0	 similardice 	0

   15   16  0  0  0  0            999 V3000
M  V30 BEGIN CTAB
M  V30 COUNTS 15 16 0 0 0
M  V30 BEGIN ATOM
M  V30 1 C -2.5391 -0.1953 0.0000 0
M  V30 2 C -1.7578 -1.3672 0.0000 0
M  V30 3 C -1.7578 0.9766 0.0000 0
M  V30 4 C -0.3906 -0.7812 0.0000 0
M  V30 5 C -0.3906 0.5859 0.0000 0
M  V30 6 C 0.7812 1.1719 0.0000 0
M  V30 7 C 1.9531 -0.7812 0.0000 0
M  V30 8 N 0.7812 -1.5625 0.0000 0
M  V30 9 N 1.9531 0.3906 0.0000 0
M  V30 10 H -3.5156 -0.1953 0.0000 0
M  V30 11 H -2.1484 2.1484 0.0000 0
M  V30 12 H -1.9531 -2.3438 0.0000 0
M  V30 13 H 0.9766 2.3438 0.0000 0
M  V30 14 H 2.9297 -1.3672 0.0000 0
M  V30 15 H 2.7344 0.9766 0.0000 0
M  V30 END ATOM
M  V30 BEGIN BOND
M  V30 1 1 1 2
M  V30 2 2 1 3
M  V30 3 1 1 10
M  V30 4 2 2 4
M  V30 5 1 2 12
M  V30 6 1 3 5
M  V30 7 1 3 11
M  V30 8 1 4 5
M  V30 9 2 4 8
M  V30 10 1 5 6
M  V30 11 1 6 9
M  V30 12 1 6 13
M  V30 13 1 7 8
M  V30 14 1 7 9
M  V30 15 1 7 14
M  V30 16 1 9 15
M  V30 END BOND
M  V30 END CTAB
M  END
>  <ID>
760
$$$$
Structure_761
Score 	 6.0, smilesprid 	smiles	 smilestrue 	smiles	 similartanimoto 	0	 similardice 	0

   15   16  0  0  0  0            999 V3000
M  V30 BEGIN CTAB
M  V30 COUNTS 15 16 0 0 0
M  V30 BEGIN ATOM
M  V30 1 C -2.5391 -0.1953 0.0000 0
M  V30 2 C -1.7578 -1.3672 0.0000 0
M  V30 3 C -1.7578 0.9766 0.0000 0
M  V30 4 C -0.3906 -0.7812 0.0000 0
M  V30 5 C -0.3906 0.5859 0.0000 0
M  V30 6 C 0.7812 1.1719 0.0000 0
M  V30 7 C 1.9531 -0.7812 0.0000 0
M  V30 8 N 0.7812 -1.5625 0.0000 0
M  V30 9 N 1.9531 0.3906 0.0000 0
M  V30 10 H -3.5156 -0.1953 0.0000 0
M  V30 11 H -2.1484 2.1484 0.0000 0
M  V30 12 H -1.9531 -2.3438 0.0000 0
M  V30 13 H 0.9766 2.3438 0.0000 0
M  V30 14 H 2.9297 -1.3672 0.0000 0
M  V30 15 H 2.7344 0.9766 0.0000 0
M  V30 END ATOM
M  V30 BEGIN BOND
M  V30 1 2 1 2
M  V30 2 2 1 3
M  V30 3 1 1 10
M  V30 4 2 2 4
M  V30 5 1 2 12
M  V30 6 1 3 5
M  V30 7 1 3 11
M  V30 8 1 4 5
M  V30 9 2 4 8
M  V30 10 1 5 6
M  V30 11 1 6 9
M  V30 12 1 6 13
M  V30 13 1 7 8
M  V30 14 1 7 9
M  V30 15 1 7 14
M  V30 16 1 9 15
M  V30 END BOND
M  V30 END CTAB
M  END
>  <ID>
761
$$$$
Structure_762
Score 	 8.0, smilesprid 	smiles	 smilestrue 	smiles	 similartanimoto 	0	 similardice 	0

   15   16  0  0  0  0            999 V3000
M  V30 BEGIN CTAB
M  V30 COUNTS 15 16 0 0 0
M  V30 BEGIN ATOM
M  V30 1 C -2.5391 -0.1953 0.0000 0
M  V30 2 C -1.7578 -1.3672 0.0000 0
M  V30 3 C -1.7578 0.9766 0.0000 0
M  V30 4 C -0.3906 -0.7812 0.0000 0
M  V30 5 C -0.3906 0.5859 0.0000 0
M  V30 6 C 0.7812 1.1719 0.0000 0
M  V30 7 C 1.9531 -0.7812 0.0000 0
M  V30 8 N 0.7812 -1.5625 0.0000 0
M  V30 9 N 1.9531 0.3906 0.0000 0
M  V30 10 H -3.5156 -0.1953 0.0000 0
M  V30 11 H -2.1484 2.1484 0.0000 0
M  V30 12 H -1.9531 -2.3438 0.0000 0
M  V30 13 H 0.9766 2.3438 0.0000 0
M  V30 14 H 2.9297 -1.3672 0.0000 0
M  V30 15 H 2.7344 0.9766 0.0000 0
M  V30 END ATOM
M  V30 BEGIN BOND
M  V30 1 3 1 2
M  V30 2 2 1 3
M  V30 3 1 1 10
M  V30 4 2 2 4
M  V30 5 1 2 12
M  V30 6 1 3 5
M  V30 7 1 3 11
M  V30 8 1 4 5
M  V30 9 2 4 8
M  V30 10 1 5 6
M  V30 11 1 6 9
M  V30 12 1 6 13
M  V30 13 1 7 8
M  V30 14 1 7 9
M  V30 15 1 7 14
M  V30 16 1 9 15
M  V30 END BOND
M  V30 END CTAB
M  END
>  <ID>
762
$$$$
Structure_763
Score 	 6.0, smilesprid 	smiles	 smilestrue 	smiles	 similartanimoto 	0	 similardice 	0

   15   16  0  0  0  0            999 V3000
M  V30 BEGIN CTAB
M  V30 COUNTS 15 16 0 0 0
M  V30 BEGIN ATOM
M  V30 1 C -2.5391 -0.1953 0.0000 0
M  V30 2 C -1.7578 -1.3672 0.0000 0
M  V30 3 C -1.7578 0.9766 0.0000 0
M  V30 4 C -0.3906 -0.7812 0.0000 0
M  V30 5 C -0.3906 0.5859 0.0000 0
M  V30 6 C 0.7812 1.1719 0.0000 0
M  V30 7 C 1.9531 -0.7812 0.0000 0
M  V30 8 N 0.7812 -1.5625 0.0000 0
M  V30 9 N 1.9531 0.3906 0.0000 0
M  V30 10 H -3.5156 -0.1953 0.0000 0
M  V30 11 H -2.1484 2.1484 0.0000 0
M  V30 12 H -1.9531 -2.3438 0.0000 0
M  V30 13 H 0.9766 2.3438 0.0000 0
M  V30 14 H 2.9297 -1.3672 0.0000 0
M  V30 15 H 2.7344 0.9766 0.0000 0
M  V30 END ATOM
M  V30 BEGIN BOND
M  V30 1 1 1 2
M  V30 2 3 1 3
M  V30 3 1 1 10
M  V30 4 2 2 4
M  V30 5 1 2 12
M  V30 6 1 3 5
M  V30 7 1 3 11
M  V30 8 1 4 5
M  V30 9 2 4 8
M  V30 10 1 5 6
M  V30 11 1 6 9
M  V30 12 1 6 13
M  V30 13 1 7 8
M  V30 14 1 7 9
M  V30 15 1 7 14
M  V30 16 1 9 15
M  V30 END BOND
M  V30 END CTAB
M  END
>  <ID>
763
$$$$
Structure_764
Score 	 8.0, smilesprid 	smiles	 smilestrue 	smiles	 similartanimoto 	0	 similardice 	0

   15   16  0  0  0  0            999 V3000
M  V30 BEGIN CTAB
M  V30 COUNTS 15 16 0 0 0
M  V30 BEGIN ATOM
M  V30 1 C -2.5391 -0.1953 0.0000 0
M  V30 2 C -1.7578 -1.3672 0.0000 0
M  V30 3 C -1.7578 0.9766 0.0000 0
M  V30 4 C -0.3906 -0.7812 0.0000 0
M  V30 5 C -0.3906 0.5859 0.0000 0
M  V30 6 C 0.7812 1.1719 0.0000 0
M  V30 7 C 1.9531 -0.7812 0.0000 0
M  V30 8 N 0.7812 -1.5625 0.0000 0
M  V30 9 N 1.9531 0.3906 0.0000 0
M  V30 10 H -3.5156 -0.1953 0.0000 0
M  V30 11 H -2.1484 2.1484 0.0000 0
M  V30 12 H -1.9531 -2.3438 0.0000 0
M  V30 13 H 0.9766 2.3438 0.0000 0
M  V30 14 H 2.9297 -1.3672 0.0000 0
M  V30 15 H 2.7344 0.9766 0.0000 0
M  V30 END ATOM
M  V30 BEGIN BOND
M  V30 1 2 1 2
M  V30 2 3 1 3
M  V30 3 1 1 10
M  V30 4 2 2 4
M  V30 5 1 2 12
M  V30 6 1 3 5
M  V30 7 1 3 11
M  V30 8 1 4 5
M  V30 9 2 4 8
M  V30 10 1 5 6
M  V30 11 1 6 9
M  V30 12 1 6 13
M  V30 13 1 7 8
M  V30 14 1 7 9
M  V30 15 1 7 14
M  V30 16 1 9 15
M  V30 END BOND
M  V30 END CTAB
M  END
>  <ID>
764
$$$$
Structure_765
Score 	 10.0, smilesprid 	smiles	 smilestrue 	smiles	 similartanimoto 	0	 similardice 	0

   15   16  0  0  0  0            999 V3000
M  V30 BEGIN CTAB
M  V30 COUNTS 15 16 0 0 0
M  V30 BEGIN ATOM
M  V30 1 C -2.5391 -0.1953 0.0000 0
M  V30 2 C -1.7578 -1.3672 0.0000 0
M  V30 3 C -1.7578 0.9766 0.0000 0
M  V30 4 C -0.3906 -0.7812 0.0000 0
M  V30 5 C -0.3906 0.5859 0.0000 0
M  V30 6 C 0.7812 1.1719 0.0000 0
M  V30 7 C 1.9531 -0.7812 0.0000 0
M  V30 8 N 0.7812 -1.5625 0.0000 0
M  V30 9 N 1.9531 0.3906 0.0000 0
M  V30 10 H -3.5156 -0.1953 0.0000 0
M  V30 11 H -2.1484 2.1484 0.0000 0
M  V30 12 H -1.9531 -2.3438 0.0000 0
M  V30 13 H 0.9766 2.3438 0.0000 0
M  V30 14 H 2.9297 -1.3672 0.0000 0
M  V30 15 H 2.7344 0.9766 0.0000 0
M  V30 END ATOM
M  V30 BEGIN BOND
M  V30 1 3 1 2
M  V30 2 3 1 3
M  V30 3 1 1 10
M  V30 4 2 2 4
M  V30 5 1 2 12
M  V30 6 1 3 5
M  V30 7 1 3 11
M  V30 8 1 4 5
M  V30 9 2 4 8
M  V30 10 1 5 6
M  V30 11 1 6 9
M  V30 12 1 6 13
M  V30 13 1 7 8
M  V30 14 1 7 9
M  V30 15 1 7 14
M  V30 16 1 9 15
M  V30 END BOND
M  V30 END CTAB
M  END
>  <ID>
765
$$$$
Structure_766
Score 	 4.0, smilesprid 	smiles	 smilestrue 	smiles	 similartanimoto 	0	 similardice 	0

   15   16  0  0  0  0            999 V3000
M  V30 BEGIN CTAB
M  V30 COUNTS 15 16 0 0 0
M  V30 BEGIN ATOM
M  V30 1 C -2.5391 -0.1953 0.0000 0
M  V30 2 C -1.7578 -1.3672 0.0000 0
M  V30 3 C -1.7578 0.9766 0.0000 0
M  V30 4 C -0.3906 -0.7812 0.0000 0
M  V30 5 C -0.3906 0.5859 0.0000 0
M  V30 6 C 0.7812 1.1719 0.0000 0
M  V30 7 C 1.9531 -0.7812 0.0000 0
M  V30 8 N 0.7812 -1.5625 0.0000 0
M  V30 9 N 1.9531 0.3906 0.0000 0
M  V30 10 H -3.5156 -0.1953 0.0000 0
M  V30 11 H -2.1484 2.1484 0.0000 0
M  V30 12 H -1.9531 -2.3438 0.0000 0
M  V30 13 H 0.9766 2.3438 0.0000 0
M  V30 14 H 2.9297 -1.3672 0.0000 0
M  V30 15 H 2.7344 0.9766 0.0000 0
M  V30 END ATOM
M  V30 BEGIN BOND
M  V30 1 1 1 2
M  V30 2 1 1 3
M  V30 3 1 1 10
M  V30 4 2 2 4
M  V30 5 1 2 12
M  V30 6 2 3 5
M  V30 7 1 3 11
M  V30 8 1 4 5
M  V30 9 2 4 8
M  V30 10 1 5 6
M  V30 11 1 6 9
M  V30 12 1 6 13
M  V30 13 1 7 8
M  V30 14 1 7 9
M  V30 15 1 7 14
M  V30 16 1 9 15
M  V30 END BOND
M  V30 END CTAB
M  END
>  <ID>
766
$$$$
Structure_767
Score 	 4.0, smilesprid 	smiles	 smilestrue 	smiles	 similartanimoto 	0	 similardice 	0

   15   16  0  0  0  0            999 V3000
M  V30 BEGIN CTAB
M  V30 COUNTS 15 16 0 0 0
M  V30 BEGIN ATOM
M  V30 1 C -2.5391 -0.1953 0.0000 0
M  V30 2 C -1.7578 -1.3672 0.0000 0
M  V30 3 C -1.7578 0.9766 0.0000 0
M  V30 4 C -0.3906 -0.7812 0.0000 0
M  V30 5 C -0.3906 0.5859 0.0000 0
M  V30 6 C 0.7812 1.1719 0.0000 0
M  V30 7 C 1.9531 -0.7812 0.0000 0
M  V30 8 N 0.7812 -1.5625 0.0000 0
M  V30 9 N 1.9531 0.3906 0.0000 0
M  V30 10 H -3.5156 -0.1953 0.0000 0
M  V30 11 H -2.1484 2.1484 0.0000 0
M  V30 12 H -1.9531 -2.3438 0.0000 0
M  V30 13 H 0.9766 2.3438 0.0000 0
M  V30 14 H 2.9297 -1.3672 0.0000 0
M  V30 15 H 2.7344 0.9766 0.0000 0
M  V30 END ATOM
M  V30 BEGIN BOND
M  V30 1 2 1 2
M  V30 2 1 1 3
M  V30 3 1 1 10
M  V30 4 2 2 4
M  V30 5 1 2 12
M  V30 6 2 3 5
M  V30 7 1 3 11
M  V30 8 1 4 5
M  V30 9 2 4 8
M  V30 10 1 5 6
M  V30 11 1 6 9
M  V30 12 1 6 13
M  V30 13 1 7 8
M  V30 14 1 7 9
M  V30 15 1 7 14
M  V30 16 1 9 15
M  V30 END BOND
M  V30 END CTAB
M  END
>  <ID>
767
$$$$
Structure_768
Score 	 6.0, smilesprid 	smiles	 smilestrue 	smiles	 similartanimoto 	0	 similardice 	0

   15   16  0  0  0  0            999 V3000
M  V30 BEGIN CTAB
M  V30 COUNTS 15 16 0 0 0
M  V30 BEGIN ATOM
M  V30 1 C -2.5391 -0.1953 0.0000 0
M  V30 2 C -1.7578 -1.3672 0.0000 0
M  V30 3 C -1.7578 0.9766 0.0000 0
M  V30 4 C -0.3906 -0.7812 0.0000 0
M  V30 5 C -0.3906 0.5859 0.0000 0
M  V30 6 C 0.7812 1.1719 0.0000 0
M  V30 7 C 1.9531 -0.7812 0.0000 0
M  V30 8 N 0.7812 -1.5625 0.0000 0
M  V30 9 N 1.9531 0.3906 0.0000 0
M  V30 10 H -3.5156 -0.1953 0.0000 0
M  V30 11 H -2.1484 2.1484 0.0000 0
M  V30 12 H -1.9531 -2.3438 0.0000 0
M  V30 13 H 0.9766 2.3438 0.0000 0
M  V30 14 H 2.9297 -1.3672 0.0000 0
M  V30 15 H 2.7344 0.9766 0.0000 0
M  V30 END ATOM
M  V30 BEGIN BOND
M  V30 1 3 1 2
M  V30 2 1 1 3
M  V30 3 1 1 10
M  V30 4 2 2 4
M  V30 5 1 2 12
M  V30 6 2 3 5
M  V30 7 1 3 11
M  V30 8 1 4 5
M  V30 9 2 4 8
M  V30 10 1 5 6
M  V30 11 1 6 9
M  V30 12 1 6 13
M  V30 13 1 7 8
M  V30 14 1 7 9
M  V30 15 1 7 14
M  V30 16 1 9 15
M  V30 END BOND
M  V30 END CTAB
M  END
>  <ID>
768
$$$$
Structure_769
Score 	 4.0, smilesprid 	smiles	 smilestrue 	smiles	 similartanimoto 	0	 similardice 	0

   15   16  0  0  0  0            999 V3000
M  V30 BEGIN CTAB
M  V30 COUNTS 15 16 0 0 0
M  V30 BEGIN ATOM
M  V30 1 C -2.5391 -0.1953 0.0000 0
M  V30 2 C -1.7578 -1.3672 0.0000 0
M  V30 3 C -1.7578 0.9766 0.0000 0
M  V30 4 C -0.3906 -0.7812 0.0000 0
M  V30 5 C -0.3906 0.5859 0.0000 0
M  V30 6 C 0.7812 1.1719 0.0000 0
M  V30 7 C 1.9531 -0.7812 0.0000 0
M  V30 8 N 0.7812 -1.5625 0.0000 0
M  V30 9 N 1.9531 0.3906 0.0000 0
M  V30 10 H -3.5156 -0.1953 0.0000 0
M  V30 11 H -2.1484 2.1484 0.0000 0
M  V30 12 H -1.9531 -2.3438 0.0000 0
M  V30 13 H 0.9766 2.3438 0.0000 0
M  V30 14 H 2.9297 -1.3672 0.0000 0
M  V30 15 H 2.7344 0.9766 0.0000 0
M  V30 END ATOM
M  V30 BEGIN BOND
M  V30 1 1 1 2
M  V30 2 2 1 3
M  V30 3 1 1 10
M  V30 4 2 2 4
M  V30 5 1 2 12
M  V30 6 2 3 5
M  V30 7 1 3 11
M  V30 8 1 4 5
M  V30 9 2 4 8
M  V30 10 1 5 6
M  V30 11 1 6 9
M  V30 12 1 6 13
M  V30 13 1 7 8
M  V30 14 1 7 9
M  V30 15 1 7 14
M  V30 16 1 9 15
M  V30 END BOND
M  V30 END CTAB
M  END
>  <ID>
769
$$$$
Structure_770
Score 	 6.0, smilesprid 	smiles	 smilestrue 	smiles	 similartanimoto 	0	 similardice 	0

   15   16  0  0  0  0            999 V3000
M  V30 BEGIN CTAB
M  V30 COUNTS 15 16 0 0 0
M  V30 BEGIN ATOM
M  V30 1 C -2.5391 -0.1953 0.0000 0
M  V30 2 C -1.7578 -1.3672 0.0000 0
M  V30 3 C -1.7578 0.9766 0.0000 0
M  V30 4 C -0.3906 -0.7812 0.0000 0
M  V30 5 C -0.3906 0.5859 0.0000 0
M  V30 6 C 0.7812 1.1719 0.0000 0
M  V30 7 C 1.9531 -0.7812 0.0000 0
M  V30 8 N 0.7812 -1.5625 0.0000 0
M  V30 9 N 1.9531 0.3906 0.0000 0
M  V30 10 H -3.5156 -0.1953 0.0000 0
M  V30 11 H -2.1484 2.1484 0.0000 0
M  V30 12 H -1.9531 -2.3438 0.0000 0
M  V30 13 H 0.9766 2.3438 0.0000 0
M  V30 14 H 2.9297 -1.3672 0.0000 0
M  V30 15 H 2.7344 0.9766 0.0000 0
M  V30 END ATOM
M  V30 BEGIN BOND
M  V30 1 2 1 2
M  V30 2 2 1 3
M  V30 3 1 1 10
M  V30 4 2 2 4
M  V30 5 1 2 12
M  V30 6 2 3 5
M  V30 7 1 3 11
M  V30 8 1 4 5
M  V30 9 2 4 8
M  V30 10 1 5 6
M  V30 11 1 6 9
M  V30 12 1 6 13
M  V30 13 1 7 8
M  V30 14 1 7 9
M  V30 15 1 7 14
M  V30 16 1 9 15
M  V30 END BOND
M  V30 END CTAB
M  END
>  <ID>
770
$$$$
Structure_771
Score 	 8.0, smilesprid 	smiles	 smilestrue 	smiles	 similartanimoto 	0	 similardice 	0

   15   16  0  0  0  0            999 V3000
M  V30 BEGIN CTAB
M  V30 COUNTS 15 16 0 0 0
M  V30 BEGIN ATOM
M  V30 1 C -2.5391 -0.1953 0.0000 0
M  V30 2 C -1.7578 -1.3672 0.0000 0
M  V30 3 C -1.7578 0.9766 0.0000 0
M  V30 4 C -0.3906 -0.7812 0.0000 0
M  V30 5 C -0.3906 0.5859 0.0000 0
M  V30 6 C 0.7812 1.1719 0.0000 0
M  V30 7 C 1.9531 -0.7812 0.0000 0
M  V30 8 N 0.7812 -1.5625 0.0000 0
M  V30 9 N 1.9531 0.3906 0.0000 0
M  V30 10 H -3.5156 -0.1953 0.0000 0
M  V30 11 H -2.1484 2.1484 0.0000 0
M  V30 12 H -1.9531 -2.3438 0.0000 0
M  V30 13 H 0.9766 2.3438 0.0000 0
M  V30 14 H 2.9297 -1.3672 0.0000 0
M  V30 15 H 2.7344 0.9766 0.0000 0
M  V30 END ATOM
M  V30 BEGIN BOND
M  V30 1 3 1 2
M  V30 2 2 1 3
M  V30 3 1 1 10
M  V30 4 2 2 4
M  V30 5 1 2 12
M  V30 6 2 3 5
M  V30 7 1 3 11
M  V30 8 1 4 5
M  V30 9 2 4 8
M  V30 10 1 5 6
M  V30 11 1 6 9
M  V30 12 1 6 13
M  V30 13 1 7 8
M  V30 14 1 7 9
M  V30 15 1 7 14
M  V30 16 1 9 15
M  V30 END BOND
M  V30 END CTAB
M  END
>  <ID>
771
$$$$
Structure_772
Score 	 6.0, smilesprid 	smiles	 smilestrue 	smiles	 similartanimoto 	0	 similardice 	0

   15   16  0  0  0  0            999 V3000
M  V30 BEGIN CTAB
M  V30 COUNTS 15 16 0 0 0
M  V30 BEGIN ATOM
M  V30 1 C -2.5391 -0.1953 0.0000 0
M  V30 2 C -1.7578 -1.3672 0.0000 0
M  V30 3 C -1.7578 0.9766 0.0000 0
M  V30 4 C -0.3906 -0.7812 0.0000 0
M  V30 5 C -0.3906 0.5859 0.0000 0
M  V30 6 C 0.7812 1.1719 0.0000 0
M  V30 7 C 1.9531 -0.7812 0.0000 0
M  V30 8 N 0.7812 -1.5625 0.0000 0
M  V30 9 N 1.9531 0.3906 0.0000 0
M  V30 10 H -3.5156 -0.1953 0.0000 0
M  V30 11 H -2.1484 2.1484 0.0000 0
M  V30 12 H -1.9531 -2.3438 0.0000 0
M  V30 13 H 0.9766 2.3438 0.0000 0
M  V30 14 H 2.9297 -1.3672 0.0000 0
M  V30 15 H 2.7344 0.9766 0.0000 0
M  V30 END ATOM
M  V30 BEGIN BOND
M  V30 1 1 1 2
M  V30 2 3 1 3
M  V30 3 1 1 10
M  V30 4 2 2 4
M  V30 5 1 2 12
M  V30 6 2 3 5
M  V30 7 1 3 11
M  V30 8 1 4 5
M  V30 9 2 4 8
M  V30 10 1 5 6
M  V30 11 1 6 9
M  V30 12 1 6 13
M  V30 13 1 7 8
M  V30 14 1 7 9
M  V30 15 1 7 14
M  V30 16 1 9 15
M  V30 END BOND
M  V30 END CTAB
M  END
>  <ID>
772
$$$$
Structure_773
Score 	 8.0, smilesprid 	smiles	 smilestrue 	smiles	 similartanimoto 	0	 similardice 	0

   15   16  0  0  0  0            999 V3000
M  V30 BEGIN CTAB
M  V30 COUNTS 15 16 0 0 0
M  V30 BEGIN ATOM
M  V30 1 C -2.5391 -0.1953 0.0000 0
M  V30 2 C -1.7578 -1.3672 0.0000 0
M  V30 3 C -1.7578 0.9766 0.0000 0
M  V30 4 C -0.3906 -0.7812 0.0000 0
M  V30 5 C -0.3906 0.5859 0.0000 0
M  V30 6 C 0.7812 1.1719 0.0000 0
M  V30 7 C 1.9531 -0.7812 0.0000 0
M  V30 8 N 0.7812 -1.5625 0.0000 0
M  V30 9 N 1.9531 0.3906 0.0000 0
M  V30 10 H -3.5156 -0.1953 0.0000 0
M  V30 11 H -2.1484 2.1484 0.0000 0
M  V30 12 H -1.9531 -2.3438 0.0000 0
M  V30 13 H 0.9766 2.3438 0.0000 0
M  V30 14 H 2.9297 -1.3672 0.0000 0
M  V30 15 H 2.7344 0.9766 0.0000 0
M  V30 END ATOM
M  V30 BEGIN BOND
M  V30 1 2 1 2
M  V30 2 3 1 3
M  V30 3 1 1 10
M  V30 4 2 2 4
M  V30 5 1 2 12
M  V30 6 2 3 5
M  V30 7 1 3 11
M  V30 8 1 4 5
M  V30 9 2 4 8
M  V30 10 1 5 6
M  V30 11 1 6 9
M  V30 12 1 6 13
M  V30 13 1 7 8
M  V30 14 1 7 9
M  V30 15 1 7 14
M  V30 16 1 9 15
M  V30 END BOND
M  V30 END CTAB
M  END
>  <ID>
773
$$$$
Structure_774
Score 	 10.0, smilesprid 	smiles	 smilestrue 	smiles	 similartanimoto 	0	 similardice 	0

   15   16  0  0  0  0            999 V3000
M  V30 BEGIN CTAB
M  V30 COUNTS 15 16 0 0 0
M  V30 BEGIN ATOM
M  V30 1 C -2.5391 -0.1953 0.0000 0
M  V30 2 C -1.7578 -1.3672 0.0000 0
M  V30 3 C -1.7578 0.9766 0.0000 0
M  V30 4 C -0.3906 -0.7812 0.0000 0
M  V30 5 C -0.3906 0.5859 0.0000 0
M  V30 6 C 0.7812 1.1719 0.0000 0
M  V30 7 C 1.9531 -0.7812 0.0000 0
M  V30 8 N 0.7812 -1.5625 0.0000 0
M  V30 9 N 1.9531 0.3906 0.0000 0
M  V30 10 H -3.5156 -0.1953 0.0000 0
M  V30 11 H -2.1484 2.1484 0.0000 0
M  V30 12 H -1.9531 -2.3438 0.0000 0
M  V30 13 H 0.9766 2.3438 0.0000 0
M  V30 14 H 2.9297 -1.3672 0.0000 0
M  V30 15 H 2.7344 0.9766 0.0000 0
M  V30 END ATOM
M  V30 BEGIN BOND
M  V30 1 3 1 2
M  V30 2 3 1 3
M  V30 3 1 1 10
M  V30 4 2 2 4
M  V30 5 1 2 12
M  V30 6 2 3 5
M  V30 7 1 3 11
M  V30 8 1 4 5
M  V30 9 2 4 8
M  V30 10 1 5 6
M  V30 11 1 6 9
M  V30 12 1 6 13
M  V30 13 1 7 8
M  V30 14 1 7 9
M  V30 15 1 7 14
M  V30 16 1 9 15
M  V30 END BOND
M  V30 END CTAB
M  END
>  <ID>
774
$$$$
Structure_775
Score 	 6.0, smilesprid 	smiles	 smilestrue 	smiles	 similartanimoto 	0	 similardice 	0

   15   16  0  0  0  0            999 V3000
M  V30 BEGIN CTAB
M  V30 COUNTS 15 16 0 0 0
M  V30 BEGIN ATOM
M  V30 1 C -2.5391 -0.1953 0.0000 0
M  V30 2 C -1.7578 -1.3672 0.0000 0
M  V30 3 C -1.7578 0.9766 0.0000 0
M  V30 4 C -0.3906 -0.7812 0.0000 0
M  V30 5 C -0.3906 0.5859 0.0000 0
M  V30 6 C 0.7812 1.1719 0.0000 0
M  V30 7 C 1.9531 -0.7812 0.0000 0
M  V30 8 N 0.7812 -1.5625 0.0000 0
M  V30 9 N 1.9531 0.3906 0.0000 0
M  V30 10 H -3.5156 -0.1953 0.0000 0
M  V30 11 H -2.1484 2.1484 0.0000 0
M  V30 12 H -1.9531 -2.3438 0.0000 0
M  V30 13 H 0.9766 2.3438 0.0000 0
M  V30 14 H 2.9297 -1.3672 0.0000 0
M  V30 15 H 2.7344 0.9766 0.0000 0
M  V30 END ATOM
M  V30 BEGIN BOND
M  V30 1 1 1 2
M  V30 2 1 1 3
M  V30 3 1 1 10
M  V30 4 2 2 4
M  V30 5 1 2 12
M  V30 6 3 3 5
M  V30 7 1 3 11
M  V30 8 1 4 5
M  V30 9 2 4 8
M  V30 10 1 5 6
M  V30 11 1 6 9
M  V30 12 1 6 13
M  V30 13 1 7 8
M  V30 14 1 7 9
M  V30 15 1 7 14
M  V30 16 1 9 15
M  V30 END BOND
M  V30 END CTAB
M  END
>  <ID>
775
$$$$
Structure_776
Score 	 6.0, smilesprid 	smiles	 smilestrue 	smiles	 similartanimoto 	0	 similardice 	0

   15   16  0  0  0  0            999 V3000
M  V30 BEGIN CTAB
M  V30 COUNTS 15 16 0 0 0
M  V30 BEGIN ATOM
M  V30 1 C -2.5391 -0.1953 0.0000 0
M  V30 2 C -1.7578 -1.3672 0.0000 0
M  V30 3 C -1.7578 0.9766 0.0000 0
M  V30 4 C -0.3906 -0.7812 0.0000 0
M  V30 5 C -0.3906 0.5859 0.0000 0
M  V30 6 C 0.7812 1.1719 0.0000 0
M  V30 7 C 1.9531 -0.7812 0.0000 0
M  V30 8 N 0.7812 -1.5625 0.0000 0
M  V30 9 N 1.9531 0.3906 0.0000 0
M  V30 10 H -3.5156 -0.1953 0.0000 0
M  V30 11 H -2.1484 2.1484 0.0000 0
M  V30 12 H -1.9531 -2.3438 0.0000 0
M  V30 13 H 0.9766 2.3438 0.0000 0
M  V30 14 H 2.9297 -1.3672 0.0000 0
M  V30 15 H 2.7344 0.9766 0.0000 0
M  V30 END ATOM
M  V30 BEGIN BOND
M  V30 1 2 1 2
M  V30 2 1 1 3
M  V30 3 1 1 10
M  V30 4 2 2 4
M  V30 5 1 2 12
M  V30 6 3 3 5
M  V30 7 1 3 11
M  V30 8 1 4 5
M  V30 9 2 4 8
M  V30 10 1 5 6
M  V30 11 1 6 9
M  V30 12 1 6 13
M  V30 13 1 7 8
M  V30 14 1 7 9
M  V30 15 1 7 14
M  V30 16 1 9 15
M  V30 END BOND
M  V30 END CTAB
M  END
>  <ID>
776
$$$$
Structure_777
Score 	 8.0, smilesprid 	smiles	 smilestrue 	smiles	 similartanimoto 	0	 similardice 	0

   15   16  0  0  0  0            999 V3000
M  V30 BEGIN CTAB
M  V30 COUNTS 15 16 0 0 0
M  V30 BEGIN ATOM
M  V30 1 C -2.5391 -0.1953 0.0000 0
M  V30 2 C -1.7578 -1.3672 0.0000 0
M  V30 3 C -1.7578 0.9766 0.0000 0
M  V30 4 C -0.3906 -0.7812 0.0000 0
M  V30 5 C -0.3906 0.5859 0.0000 0
M  V30 6 C 0.7812 1.1719 0.0000 0
M  V30 7 C 1.9531 -0.7812 0.0000 0
M  V30 8 N 0.7812 -1.5625 0.0000 0
M  V30 9 N 1.9531 0.3906 0.0000 0
M  V30 10 H -3.5156 -0.1953 0.0000 0
M  V30 11 H -2.1484 2.1484 0.0000 0
M  V30 12 H -1.9531 -2.3438 0.0000 0
M  V30 13 H 0.9766 2.3438 0.0000 0
M  V30 14 H 2.9297 -1.3672 0.0000 0
M  V30 15 H 2.7344 0.9766 0.0000 0
M  V30 END ATOM
M  V30 BEGIN BOND
M  V30 1 3 1 2
M  V30 2 1 1 3
M  V30 3 1 1 10
M  V30 4 2 2 4
M  V30 5 1 2 12
M  V30 6 3 3 5
M  V30 7 1 3 11
M  V30 8 1 4 5
M  V30 9 2 4 8
M  V30 10 1 5 6
M  V30 11 1 6 9
M  V30 12 1 6 13
M  V30 13 1 7 8
M  V30 14 1 7 9
M  V30 15 1 7 14
M  V30 16 1 9 15
M  V30 END BOND
M  V30 END CTAB
M  END
>  <ID>
777
$$$$
Structure_778
Score 	 6.0, smilesprid 	smiles	 smilestrue 	smiles	 similartanimoto 	0	 similardice 	0

   15   16  0  0  0  0            999 V3000
M  V30 BEGIN CTAB
M  V30 COUNTS 15 16 0 0 0
M  V30 BEGIN ATOM
M  V30 1 C -2.5391 -0.1953 0.0000 0
M  V30 2 C -1.7578 -1.3672 0.0000 0
M  V30 3 C -1.7578 0.9766 0.0000 0
M  V30 4 C -0.3906 -0.7812 0.0000 0
M  V30 5 C -0.3906 0.5859 0.0000 0
M  V30 6 C 0.7812 1.1719 0.0000 0
M  V30 7 C 1.9531 -0.7812 0.0000 0
M  V30 8 N 0.7812 -1.5625 0.0000 0
M  V30 9 N 1.9531 0.3906 0.0000 0
M  V30 10 H -3.5156 -0.1953 0.0000 0
M  V30 11 H -2.1484 2.1484 0.0000 0
M  V30 12 H -1.9531 -2.3438 0.0000 0
M  V30 13 H 0.9766 2.3438 0.0000 0
M  V30 14 H 2.9297 -1.3672 0.0000 0
M  V30 15 H 2.7344 0.9766 0.0000 0
M  V30 END ATOM
M  V30 BEGIN BOND
M  V30 1 1 1 2
M  V30 2 2 1 3
M  V30 3 1 1 10
M  V30 4 2 2 4
M  V30 5 1 2 12
M  V30 6 3 3 5
M  V30 7 1 3 11
M  V30 8 1 4 5
M  V30 9 2 4 8
M  V30 10 1 5 6
M  V30 11 1 6 9
M  V30 12 1 6 13
M  V30 13 1 7 8
M  V30 14 1 7 9
M  V30 15 1 7 14
M  V30 16 1 9 15
M  V30 END BOND
M  V30 END CTAB
M  END
>  <ID>
778
$$$$
Structure_779
Score 	 8.0, smilesprid 	smiles	 smilestrue 	smiles	 similartanimoto 	0	 similardice 	0

   15   16  0  0  0  0            999 V3000
M  V30 BEGIN CTAB
M  V30 COUNTS 15 16 0 0 0
M  V30 BEGIN ATOM
M  V30 1 C -2.5391 -0.1953 0.0000 0
M  V30 2 C -1.7578 -1.3672 0.0000 0
M  V30 3 C -1.7578 0.9766 0.0000 0
M  V30 4 C -0.3906 -0.7812 0.0000 0
M  V30 5 C -0.3906 0.5859 0.0000 0
M  V30 6 C 0.7812 1.1719 0.0000 0
M  V30 7 C 1.9531 -0.7812 0.0000 0
M  V30 8 N 0.7812 -1.5625 0.0000 0
M  V30 9 N 1.9531 0.3906 0.0000 0
M  V30 10 H -3.5156 -0.1953 0.0000 0
M  V30 11 H -2.1484 2.1484 0.0000 0
M  V30 12 H -1.9531 -2.3438 0.0000 0
M  V30 13 H 0.9766 2.3438 0.0000 0
M  V30 14 H 2.9297 -1.3672 0.0000 0
M  V30 15 H 2.7344 0.9766 0.0000 0
M  V30 END ATOM
M  V30 BEGIN BOND
M  V30 1 2 1 2
M  V30 2 2 1 3
M  V30 3 1 1 10
M  V30 4 2 2 4
M  V30 5 1 2 12
M  V30 6 3 3 5
M  V30 7 1 3 11
M  V30 8 1 4 5
M  V30 9 2 4 8
M  V30 10 1 5 6
M  V30 11 1 6 9
M  V30 12 1 6 13
M  V30 13 1 7 8
M  V30 14 1 7 9
M  V30 15 1 7 14
M  V30 16 1 9 15
M  V30 END BOND
M  V30 END CTAB
M  END
>  <ID>
779
$$$$
Structure_780
Score 	 10.0, smilesprid 	smiles	 smilestrue 	smiles	 similartanimoto 	0	 similardice 	0

   15   16  0  0  0  0            999 V3000
M  V30 BEGIN CTAB
M  V30 COUNTS 15 16 0 0 0
M  V30 BEGIN ATOM
M  V30 1 C -2.5391 -0.1953 0.0000 0
M  V30 2 C -1.7578 -1.3672 0.0000 0
M  V30 3 C -1.7578 0.9766 0.0000 0
M  V30 4 C -0.3906 -0.7812 0.0000 0
M  V30 5 C -0.3906 0.5859 0.0000 0
M  V30 6 C 0.7812 1.1719 0.0000 0
M  V30 7 C 1.9531 -0.7812 0.0000 0
M  V30 8 N 0.7812 -1.5625 0.0000 0
M  V30 9 N 1.9531 0.3906 0.0000 0
M  V30 10 H -3.5156 -0.1953 0.0000 0
M  V30 11 H -2.1484 2.1484 0.0000 0
M  V30 12 H -1.9531 -2.3438 0.0000 0
M  V30 13 H 0.9766 2.3438 0.0000 0
M  V30 14 H 2.9297 -1.3672 0.0000 0
M  V30 15 H 2.7344 0.9766 0.0000 0
M  V30 END ATOM
M  V30 BEGIN BOND
M  V30 1 3 1 2
M  V30 2 2 1 3
M  V30 3 1 1 10
M  V30 4 2 2 4
M  V30 5 1 2 12
M  V30 6 3 3 5
M  V30 7 1 3 11
M  V30 8 1 4 5
M  V30 9 2 4 8
M  V30 10 1 5 6
M  V30 11 1 6 9
M  V30 12 1 6 13
M  V30 13 1 7 8
M  V30 14 1 7 9
M  V30 15 1 7 14
M  V30 16 1 9 15
M  V30 END BOND
M  V30 END CTAB
M  END
>  <ID>
780
$$$$
Structure_781
Score 	 8.0, smilesprid 	smiles	 smilestrue 	smiles	 similartanimoto 	0	 similardice 	0

   15   16  0  0  0  0            999 V3000
M  V30 BEGIN CTAB
M  V30 COUNTS 15 16 0 0 0
M  V30 BEGIN ATOM
M  V30 1 C -2.5391 -0.1953 0.0000 0
M  V30 2 C -1.7578 -1.3672 0.0000 0
M  V30 3 C -1.7578 0.9766 0.0000 0
M  V30 4 C -0.3906 -0.7812 0.0000 0
M  V30 5 C -0.3906 0.5859 0.0000 0
M  V30 6 C 0.7812 1.1719 0.0000 0
M  V30 7 C 1.9531 -0.7812 0.0000 0
M  V30 8 N 0.7812 -1.5625 0.0000 0
M  V30 9 N 1.9531 0.3906 0.0000 0
M  V30 10 H -3.5156 -0.1953 0.0000 0
M  V30 11 H -2.1484 2.1484 0.0000 0
M  V30 12 H -1.9531 -2.3438 0.0000 0
M  V30 13 H 0.9766 2.3438 0.0000 0
M  V30 14 H 2.9297 -1.3672 0.0000 0
M  V30 15 H 2.7344 0.9766 0.0000 0
M  V30 END ATOM
M  V30 BEGIN BOND
M  V30 1 1 1 2
M  V30 2 3 1 3
M  V30 3 1 1 10
M  V30 4 2 2 4
M  V30 5 1 2 12
M  V30 6 3 3 5
M  V30 7 1 3 11
M  V30 8 1 4 5
M  V30 9 2 4 8
M  V30 10 1 5 6
M  V30 11 1 6 9
M  V30 12 1 6 13
M  V30 13 1 7 8
M  V30 14 1 7 9
M  V30 15 1 7 14
M  V30 16 1 9 15
M  V30 END BOND
M  V30 END CTAB
M  END
>  <ID>
781
$$$$
Structure_782
Score 	 10.0, smilesprid 	smiles	 smilestrue 	smiles	 similartanimoto 	0	 similardice 	0

   15   16  0  0  0  0            999 V3000
M  V30 BEGIN CTAB
M  V30 COUNTS 15 16 0 0 0
M  V30 BEGIN ATOM
M  V30 1 C -2.5391 -0.1953 0.0000 0
M  V30 2 C -1.7578 -1.3672 0.0000 0
M  V30 3 C -1.7578 0.9766 0.0000 0
M  V30 4 C -0.3906 -0.7812 0.0000 0
M  V30 5 C -0.3906 0.5859 0.0000 0
M  V30 6 C 0.7812 1.1719 0.0000 0
M  V30 7 C 1.9531 -0.7812 0.0000 0
M  V30 8 N 0.7812 -1.5625 0.0000 0
M  V30 9 N 1.9531 0.3906 0.0000 0
M  V30 10 H -3.5156 -0.1953 0.0000 0
M  V30 11 H -2.1484 2.1484 0.0000 0
M  V30 12 H -1.9531 -2.3438 0.0000 0
M  V30 13 H 0.9766 2.3438 0.0000 0
M  V30 14 H 2.9297 -1.3672 0.0000 0
M  V30 15 H 2.7344 0.9766 0.0000 0
M  V30 END ATOM
M  V30 BEGIN BOND
M  V30 1 2 1 2
M  V30 2 3 1 3
M  V30 3 1 1 10
M  V30 4 2 2 4
M  V30 5 1 2 12
M  V30 6 3 3 5
M  V30 7 1 3 11
M  V30 8 1 4 5
M  V30 9 2 4 8
M  V30 10 1 5 6
M  V30 11 1 6 9
M  V30 12 1 6 13
M  V30 13 1 7 8
M  V30 14 1 7 9
M  V30 15 1 7 14
M  V30 16 1 9 15
M  V30 END BOND
M  V30 END CTAB
M  END
>  <ID>
782
$$$$
Structure_783
Score 	 12.0, smilesprid 	smiles	 smilestrue 	smiles	 similartanimoto 	0	 similardice 	0

   15   16  0  0  0  0            999 V3000
M  V30 BEGIN CTAB
M  V30 COUNTS 15 16 0 0 0
M  V30 BEGIN ATOM
M  V30 1 C -2.5391 -0.1953 0.0000 0
M  V30 2 C -1.7578 -1.3672 0.0000 0
M  V30 3 C -1.7578 0.9766 0.0000 0
M  V30 4 C -0.3906 -0.7812 0.0000 0
M  V30 5 C -0.3906 0.5859 0.0000 0
M  V30 6 C 0.7812 1.1719 0.0000 0
M  V30 7 C 1.9531 -0.7812 0.0000 0
M  V30 8 N 0.7812 -1.5625 0.0000 0
M  V30 9 N 1.9531 0.3906 0.0000 0
M  V30 10 H -3.5156 -0.1953 0.0000 0
M  V30 11 H -2.1484 2.1484 0.0000 0
M  V30 12 H -1.9531 -2.3438 0.0000 0
M  V30 13 H 0.9766 2.3438 0.0000 0
M  V30 14 H 2.9297 -1.3672 0.0000 0
M  V30 15 H 2.7344 0.9766 0.0000 0
M  V30 END ATOM
M  V30 BEGIN BOND
M  V30 1 3 1 2
M  V30 2 3 1 3
M  V30 3 1 1 10
M  V30 4 2 2 4
M  V30 5 1 2 12
M  V30 6 3 3 5
M  V30 7 1 3 11
M  V30 8 1 4 5
M  V30 9 2 4 8
M  V30 10 1 5 6
M  V30 11 1 6 9
M  V30 12 1 6 13
M  V30 13 1 7 8
M  V30 14 1 7 9
M  V30 15 1 7 14
M  V30 16 1 9 15
M  V30 END BOND
M  V30 END CTAB
M  END
>  <ID>
783
$$$$
Structure_784
Score 	 8.0, smilesprid 	smiles	 smilestrue 	smiles	 similartanimoto 	0	 similardice 	0

   15   16  0  0  0  0            999 V3000
M  V30 BEGIN CTAB
M  V30 COUNTS 15 16 0 0 0
M  V30 BEGIN ATOM
M  V30 1 C -2.5391 -0.1953 0.0000 0
M  V30 2 C -1.7578 -1.3672 0.0000 0
M  V30 3 C -1.7578 0.9766 0.0000 0
M  V30 4 C -0.3906 -0.7812 0.0000 0
M  V30 5 C -0.3906 0.5859 0.0000 0
M  V30 6 C 0.7812 1.1719 0.0000 0
M  V30 7 C 1.9531 -0.7812 0.0000 0
M  V30 8 N 0.7812 -1.5625 0.0000 0
M  V30 9 N 1.9531 0.3906 0.0000 0
M  V30 10 H -3.5156 -0.1953 0.0000 0
M  V30 11 H -2.1484 2.1484 0.0000 0
M  V30 12 H -1.9531 -2.3438 0.0000 0
M  V30 13 H 0.9766 2.3438 0.0000 0
M  V30 14 H 2.9297 -1.3672 0.0000 0
M  V30 15 H 2.7344 0.9766 0.0000 0
M  V30 END ATOM
M  V30 BEGIN BOND
M  V30 1 1 1 2
M  V30 2 1 1 3
M  V30 3 1 1 10
M  V30 4 3 2 4
M  V30 5 1 2 12
M  V30 6 1 3 5
M  V30 7 1 3 11
M  V30 8 1 4 5
M  V30 9 2 4 8
M  V30 10 1 5 6
M  V30 11 1 6 9
M  V30 12 1 6 13
M  V30 13 1 7 8
M  V30 14 1 7 9
M  V30 15 1 7 14
M  V30 16 1 9 15
M  V30 END BOND
M  V30 END CTAB
M  END
>  <ID>
784
$$$$
Structure_785
Score 	 8.0, smilesprid 	smiles	 smilestrue 	smiles	 similartanimoto 	0	 similardice 	0

   15   16  0  0  0  0            999 V3000
M  V30 BEGIN CTAB
M  V30 COUNTS 15 16 0 0 0
M  V30 BEGIN ATOM
M  V30 1 C -2.5391 -0.1953 0.0000 0
M  V30 2 C -1.7578 -1.3672 0.0000 0
M  V30 3 C -1.7578 0.9766 0.0000 0
M  V30 4 C -0.3906 -0.7812 0.0000 0
M  V30 5 C -0.3906 0.5859 0.0000 0
M  V30 6 C 0.7812 1.1719 0.0000 0
M  V30 7 C 1.9531 -0.7812 0.0000 0
M  V30 8 N 0.7812 -1.5625 0.0000 0
M  V30 9 N 1.9531 0.3906 0.0000 0
M  V30 10 H -3.5156 -0.1953 0.0000 0
M  V30 11 H -2.1484 2.1484 0.0000 0
M  V30 12 H -1.9531 -2.3438 0.0000 0
M  V30 13 H 0.9766 2.3438 0.0000 0
M  V30 14 H 2.9297 -1.3672 0.0000 0
M  V30 15 H 2.7344 0.9766 0.0000 0
M  V30 END ATOM
M  V30 BEGIN BOND
M  V30 1 2 1 2
M  V30 2 1 1 3
M  V30 3 1 1 10
M  V30 4 3 2 4
M  V30 5 1 2 12
M  V30 6 1 3 5
M  V30 7 1 3 11
M  V30 8 1 4 5
M  V30 9 2 4 8
M  V30 10 1 5 6
M  V30 11 1 6 9
M  V30 12 1 6 13
M  V30 13 1 7 8
M  V30 14 1 7 9
M  V30 15 1 7 14
M  V30 16 1 9 15
M  V30 END BOND
M  V30 END CTAB
M  END
>  <ID>
785
$$$$
Structure_786
Score 	 10.0, smilesprid 	smiles	 smilestrue 	smiles	 similartanimoto 	0	 similardice 	0

   15   16  0  0  0  0            999 V3000
M  V30 BEGIN CTAB
M  V30 COUNTS 15 16 0 0 0
M  V30 BEGIN ATOM
M  V30 1 C -2.5391 -0.1953 0.0000 0
M  V30 2 C -1.7578 -1.3672 0.0000 0
M  V30 3 C -1.7578 0.9766 0.0000 0
M  V30 4 C -0.3906 -0.7812 0.0000 0
M  V30 5 C -0.3906 0.5859 0.0000 0
M  V30 6 C 0.7812 1.1719 0.0000 0
M  V30 7 C 1.9531 -0.7812 0.0000 0
M  V30 8 N 0.7812 -1.5625 0.0000 0
M  V30 9 N 1.9531 0.3906 0.0000 0
M  V30 10 H -3.5156 -0.1953 0.0000 0
M  V30 11 H -2.1484 2.1484 0.0000 0
M  V30 12 H -1.9531 -2.3438 0.0000 0
M  V30 13 H 0.9766 2.3438 0.0000 0
M  V30 14 H 2.9297 -1.3672 0.0000 0
M  V30 15 H 2.7344 0.9766 0.0000 0
M  V30 END ATOM
M  V30 BEGIN BOND
M  V30 1 3 1 2
M  V30 2 1 1 3
M  V30 3 1 1 10
M  V30 4 3 2 4
M  V30 5 1 2 12
M  V30 6 1 3 5
M  V30 7 1 3 11
M  V30 8 1 4 5
M  V30 9 2 4 8
M  V30 10 1 5 6
M  V30 11 1 6 9
M  V30 12 1 6 13
M  V30 13 1 7 8
M  V30 14 1 7 9
M  V30 15 1 7 14
M  V30 16 1 9 15
M  V30 END BOND
M  V30 END CTAB
M  END
>  <ID>
786
$$$$
Structure_787
Score 	 6.0, smilesprid 	smiles	 smilestrue 	smiles	 similartanimoto 	0	 similardice 	0

   15   16  0  0  0  0            999 V3000
M  V30 BEGIN CTAB
M  V30 COUNTS 15 16 0 0 0
M  V30 BEGIN ATOM
M  V30 1 C -2.5391 -0.1953 0.0000 0
M  V30 2 C -1.7578 -1.3672 0.0000 0
M  V30 3 C -1.7578 0.9766 0.0000 0
M  V30 4 C -0.3906 -0.7812 0.0000 0
M  V30 5 C -0.3906 0.5859 0.0000 0
M  V30 6 C 0.7812 1.1719 0.0000 0
M  V30 7 C 1.9531 -0.7812 0.0000 0
M  V30 8 N 0.7812 -1.5625 0.0000 0
M  V30 9 N 1.9531 0.3906 0.0000 0
M  V30 10 H -3.5156 -0.1953 0.0000 0
M  V30 11 H -2.1484 2.1484 0.0000 0
M  V30 12 H -1.9531 -2.3438 0.0000 0
M  V30 13 H 0.9766 2.3438 0.0000 0
M  V30 14 H 2.9297 -1.3672 0.0000 0
M  V30 15 H 2.7344 0.9766 0.0000 0
M  V30 END ATOM
M  V30 BEGIN BOND
M  V30 1 1 1 2
M  V30 2 2 1 3
M  V30 3 1 1 10
M  V30 4 3 2 4
M  V30 5 1 2 12
M  V30 6 1 3 5
M  V30 7 1 3 11
M  V30 8 1 4 5
M  V30 9 2 4 8
M  V30 10 1 5 6
M  V30 11 1 6 9
M  V30 12 1 6 13
M  V30 13 1 7 8
M  V30 14 1 7 9
M  V30 15 1 7 14
M  V30 16 1 9 15
M  V30 END BOND
M  V30 END CTAB
M  END
>  <ID>
787
$$$$
Structure_788
Score 	 8.0, smilesprid 	smiles	 smilestrue 	smiles	 similartanimoto 	0	 similardice 	0

   15   16  0  0  0  0            999 V3000
M  V30 BEGIN CTAB
M  V30 COUNTS 15 16 0 0 0
M  V30 BEGIN ATOM
M  V30 1 C -2.5391 -0.1953 0.0000 0
M  V30 2 C -1.7578 -1.3672 0.0000 0
M  V30 3 C -1.7578 0.9766 0.0000 0
M  V30 4 C -0.3906 -0.7812 0.0000 0
M  V30 5 C -0.3906 0.5859 0.0000 0
M  V30 6 C 0.7812 1.1719 0.0000 0
M  V30 7 C 1.9531 -0.7812 0.0000 0
M  V30 8 N 0.7812 -1.5625 0.0000 0
M  V30 9 N 1.9531 0.3906 0.0000 0
M  V30 10 H -3.5156 -0.1953 0.0000 0
M  V30 11 H -2.1484 2.1484 0.0000 0
M  V30 12 H -1.9531 -2.3438 0.0000 0
M  V30 13 H 0.9766 2.3438 0.0000 0
M  V30 14 H 2.9297 -1.3672 0.0000 0
M  V30 15 H 2.7344 0.9766 0.0000 0
M  V30 END ATOM
M  V30 BEGIN BOND
M  V30 1 2 1 2
M  V30 2 2 1 3
M  V30 3 1 1 10
M  V30 4 3 2 4
M  V30 5 1 2 12
M  V30 6 1 3 5
M  V30 7 1 3 11
M  V30 8 1 4 5
M  V30 9 2 4 8
M  V30 10 1 5 6
M  V30 11 1 6 9
M  V30 12 1 6 13
M  V30 13 1 7 8
M  V30 14 1 7 9
M  V30 15 1 7 14
M  V30 16 1 9 15
M  V30 END BOND
M  V30 END CTAB
M  END
>  <ID>
788
$$$$
Structure_789
Score 	 10.0, smilesprid 	smiles	 smilestrue 	smiles	 similartanimoto 	0	 similardice 	0

   15   16  0  0  0  0            999 V3000
M  V30 BEGIN CTAB
M  V30 COUNTS 15 16 0 0 0
M  V30 BEGIN ATOM
M  V30 1 C -2.5391 -0.1953 0.0000 0
M  V30 2 C -1.7578 -1.3672 0.0000 0
M  V30 3 C -1.7578 0.9766 0.0000 0
M  V30 4 C -0.3906 -0.7812 0.0000 0
M  V30 5 C -0.3906 0.5859 0.0000 0
M  V30 6 C 0.7812 1.1719 0.0000 0
M  V30 7 C 1.9531 -0.7812 0.0000 0
M  V30 8 N 0.7812 -1.5625 0.0000 0
M  V30 9 N 1.9531 0.3906 0.0000 0
M  V30 10 H -3.5156 -0.1953 0.0000 0
M  V30 11 H -2.1484 2.1484 0.0000 0
M  V30 12 H -1.9531 -2.3438 0.0000 0
M  V30 13 H 0.9766 2.3438 0.0000 0
M  V30 14 H 2.9297 -1.3672 0.0000 0
M  V30 15 H 2.7344 0.9766 0.0000 0
M  V30 END ATOM
M  V30 BEGIN BOND
M  V30 1 3 1 2
M  V30 2 2 1 3
M  V30 3 1 1 10
M  V30 4 3 2 4
M  V30 5 1 2 12
M  V30 6 1 3 5
M  V30 7 1 3 11
M  V30 8 1 4 5
M  V30 9 2 4 8
M  V30 10 1 5 6
M  V30 11 1 6 9
M  V30 12 1 6 13
M  V30 13 1 7 8
M  V30 14 1 7 9
M  V30 15 1 7 14
M  V30 16 1 9 15
M  V30 END BOND
M  V30 END CTAB
M  END
>  <ID>
789
$$$$
Structure_790
Score 	 8.0, smilesprid 	smiles	 smilestrue 	smiles	 similartanimoto 	0	 similardice 	0

   15   16  0  0  0  0            999 V3000
M  V30 BEGIN CTAB
M  V30 COUNTS 15 16 0 0 0
M  V30 BEGIN ATOM
M  V30 1 C -2.5391 -0.1953 0.0000 0
M  V30 2 C -1.7578 -1.3672 0.0000 0
M  V30 3 C -1.7578 0.9766 0.0000 0
M  V30 4 C -0.3906 -0.7812 0.0000 0
M  V30 5 C -0.3906 0.5859 0.0000 0
M  V30 6 C 0.7812 1.1719 0.0000 0
M  V30 7 C 1.9531 -0.7812 0.0000 0
M  V30 8 N 0.7812 -1.5625 0.0000 0
M  V30 9 N 1.9531 0.3906 0.0000 0
M  V30 10 H -3.5156 -0.1953 0.0000 0
M  V30 11 H -2.1484 2.1484 0.0000 0
M  V30 12 H -1.9531 -2.3438 0.0000 0
M  V30 13 H 0.9766 2.3438 0.0000 0
M  V30 14 H 2.9297 -1.3672 0.0000 0
M  V30 15 H 2.7344 0.9766 0.0000 0
M  V30 END ATOM
M  V30 BEGIN BOND
M  V30 1 1 1 2
M  V30 2 3 1 3
M  V30 3 1 1 10
M  V30 4 3 2 4
M  V30 5 1 2 12
M  V30 6 1 3 5
M  V30 7 1 3 11
M  V30 8 1 4 5
M  V30 9 2 4 8
M  V30 10 1 5 6
M  V30 11 1 6 9
M  V30 12 1 6 13
M  V30 13 1 7 8
M  V30 14 1 7 9
M  V30 15 1 7 14
M  V30 16 1 9 15
M  V30 END BOND
M  V30 END CTAB
M  END
>  <ID>
790
$$$$
Structure_791
Score 	 10.0, smilesprid 	smiles	 smilestrue 	smiles	 similartanimoto 	0	 similardice 	0

   15   16  0  0  0  0            999 V3000
M  V30 BEGIN CTAB
M  V30 COUNTS 15 16 0 0 0
M  V30 BEGIN ATOM
M  V30 1 C -2.5391 -0.1953 0.0000 0
M  V30 2 C -1.7578 -1.3672 0.0000 0
M  V30 3 C -1.7578 0.9766 0.0000 0
M  V30 4 C -0.3906 -0.7812 0.0000 0
M  V30 5 C -0.3906 0.5859 0.0000 0
M  V30 6 C 0.7812 1.1719 0.0000 0
M  V30 7 C 1.9531 -0.7812 0.0000 0
M  V30 8 N 0.7812 -1.5625 0.0000 0
M  V30 9 N 1.9531 0.3906 0.0000 0
M  V30 10 H -3.5156 -0.1953 0.0000 0
M  V30 11 H -2.1484 2.1484 0.0000 0
M  V30 12 H -1.9531 -2.3438 0.0000 0
M  V30 13 H 0.9766 2.3438 0.0000 0
M  V30 14 H 2.9297 -1.3672 0.0000 0
M  V30 15 H 2.7344 0.9766 0.0000 0
M  V30 END ATOM
M  V30 BEGIN BOND
M  V30 1 2 1 2
M  V30 2 3 1 3
M  V30 3 1 1 10
M  V30 4 3 2 4
M  V30 5 1 2 12
M  V30 6 1 3 5
M  V30 7 1 3 11
M  V30 8 1 4 5
M  V30 9 2 4 8
M  V30 10 1 5 6
M  V30 11 1 6 9
M  V30 12 1 6 13
M  V30 13 1 7 8
M  V30 14 1 7 9
M  V30 15 1 7 14
M  V30 16 1 9 15
M  V30 END BOND
M  V30 END CTAB
M  END
>  <ID>
791
$$$$
Structure_792
Score 	 12.0, smilesprid 	smiles	 smilestrue 	smiles	 similartanimoto 	0	 similardice 	0

   15   16  0  0  0  0            999 V3000
M  V30 BEGIN CTAB
M  V30 COUNTS 15 16 0 0 0
M  V30 BEGIN ATOM
M  V30 1 C -2.5391 -0.1953 0.0000 0
M  V30 2 C -1.7578 -1.3672 0.0000 0
M  V30 3 C -1.7578 0.9766 0.0000 0
M  V30 4 C -0.3906 -0.7812 0.0000 0
M  V30 5 C -0.3906 0.5859 0.0000 0
M  V30 6 C 0.7812 1.1719 0.0000 0
M  V30 7 C 1.9531 -0.7812 0.0000 0
M  V30 8 N 0.7812 -1.5625 0.0000 0
M  V30 9 N 1.9531 0.3906 0.0000 0
M  V30 10 H -3.5156 -0.1953 0.0000 0
M  V30 11 H -2.1484 2.1484 0.0000 0
M  V30 12 H -1.9531 -2.3438 0.0000 0
M  V30 13 H 0.9766 2.3438 0.0000 0
M  V30 14 H 2.9297 -1.3672 0.0000 0
M  V30 15 H 2.7344 0.9766 0.0000 0
M  V30 END ATOM
M  V30 BEGIN BOND
M  V30 1 3 1 2
M  V30 2 3 1 3
M  V30 3 1 1 10
M  V30 4 3 2 4
M  V30 5 1 2 12
M  V30 6 1 3 5
M  V30 7 1 3 11
M  V30 8 1 4 5
M  V30 9 2 4 8
M  V30 10 1 5 6
M  V30 11 1 6 9
M  V30 12 1 6 13
M  V30 13 1 7 8
M  V30 14 1 7 9
M  V30 15 1 7 14
M  V30 16 1 9 15
M  V30 END BOND
M  V30 END CTAB
M  END
>  <ID>
792
$$$$
Structure_793
Score 	 6.0, smilesprid 	smiles	 smilestrue 	smiles	 similartanimoto 	0	 similardice 	0

   15   16  0  0  0  0            999 V3000
M  V30 BEGIN CTAB
M  V30 COUNTS 15 16 0 0 0
M  V30 BEGIN ATOM
M  V30 1 C -2.5391 -0.1953 0.0000 0
M  V30 2 C -1.7578 -1.3672 0.0000 0
M  V30 3 C -1.7578 0.9766 0.0000 0
M  V30 4 C -0.3906 -0.7812 0.0000 0
M  V30 5 C -0.3906 0.5859 0.0000 0
M  V30 6 C 0.7812 1.1719 0.0000 0
M  V30 7 C 1.9531 -0.7812 0.0000 0
M  V30 8 N 0.7812 -1.5625 0.0000 0
M  V30 9 N 1.9531 0.3906 0.0000 0
M  V30 10 H -3.5156 -0.1953 0.0000 0
M  V30 11 H -2.1484 2.1484 0.0000 0
M  V30 12 H -1.9531 -2.3438 0.0000 0
M  V30 13 H 0.9766 2.3438 0.0000 0
M  V30 14 H 2.9297 -1.3672 0.0000 0
M  V30 15 H 2.7344 0.9766 0.0000 0
M  V30 END ATOM
M  V30 BEGIN BOND
M  V30 1 1 1 2
M  V30 2 1 1 3
M  V30 3 1 1 10
M  V30 4 3 2 4
M  V30 5 1 2 12
M  V30 6 2 3 5
M  V30 7 1 3 11
M  V30 8 1 4 5
M  V30 9 2 4 8
M  V30 10 1 5 6
M  V30 11 1 6 9
M  V30 12 1 6 13
M  V30 13 1 7 8
M  V30 14 1 7 9
M  V30 15 1 7 14
M  V30 16 1 9 15
M  V30 END BOND
M  V30 END CTAB
M  END
>  <ID>
793
$$$$
Structure_794
Score 	 6.0, smilesprid 	smiles	 smilestrue 	smiles	 similartanimoto 	0	 similardice 	0

   15   16  0  0  0  0            999 V3000
M  V30 BEGIN CTAB
M  V30 COUNTS 15 16 0 0 0
M  V30 BEGIN ATOM
M  V30 1 C -2.5391 -0.1953 0.0000 0
M  V30 2 C -1.7578 -1.3672 0.0000 0
M  V30 3 C -1.7578 0.9766 0.0000 0
M  V30 4 C -0.3906 -0.7812 0.0000 0
M  V30 5 C -0.3906 0.5859 0.0000 0
M  V30 6 C 0.7812 1.1719 0.0000 0
M  V30 7 C 1.9531 -0.7812 0.0000 0
M  V30 8 N 0.7812 -1.5625 0.0000 0
M  V30 9 N 1.9531 0.3906 0.0000 0
M  V30 10 H -3.5156 -0.1953 0.0000 0
M  V30 11 H -2.1484 2.1484 0.0000 0
M  V30 12 H -1.9531 -2.3438 0.0000 0
M  V30 13 H 0.9766 2.3438 0.0000 0
M  V30 14 H 2.9297 -1.3672 0.0000 0
M  V30 15 H 2.7344 0.9766 0.0000 0
M  V30 END ATOM
M  V30 BEGIN BOND
M  V30 1 2 1 2
M  V30 2 1 1 3
M  V30 3 1 1 10
M  V30 4 3 2 4
M  V30 5 1 2 12
M  V30 6 2 3 5
M  V30 7 1 3 11
M  V30 8 1 4 5
M  V30 9 2 4 8
M  V30 10 1 5 6
M  V30 11 1 6 9
M  V30 12 1 6 13
M  V30 13 1 7 8
M  V30 14 1 7 9
M  V30 15 1 7 14
M  V30 16 1 9 15
M  V30 END BOND
M  V30 END CTAB
M  END
>  <ID>
794
$$$$
Structure_795
Score 	 8.0, smilesprid 	smiles	 smilestrue 	smiles	 similartanimoto 	0	 similardice 	0

   15   16  0  0  0  0            999 V3000
M  V30 BEGIN CTAB
M  V30 COUNTS 15 16 0 0 0
M  V30 BEGIN ATOM
M  V30 1 C -2.5391 -0.1953 0.0000 0
M  V30 2 C -1.7578 -1.3672 0.0000 0
M  V30 3 C -1.7578 0.9766 0.0000 0
M  V30 4 C -0.3906 -0.7812 0.0000 0
M  V30 5 C -0.3906 0.5859 0.0000 0
M  V30 6 C 0.7812 1.1719 0.0000 0
M  V30 7 C 1.9531 -0.7812 0.0000 0
M  V30 8 N 0.7812 -1.5625 0.0000 0
M  V30 9 N 1.9531 0.3906 0.0000 0
M  V30 10 H -3.5156 -0.1953 0.0000 0
M  V30 11 H -2.1484 2.1484 0.0000 0
M  V30 12 H -1.9531 -2.3438 0.0000 0
M  V30 13 H 0.9766 2.3438 0.0000 0
M  V30 14 H 2.9297 -1.3672 0.0000 0
M  V30 15 H 2.7344 0.9766 0.0000 0
M  V30 END ATOM
M  V30 BEGIN BOND
M  V30 1 3 1 2
M  V30 2 1 1 3
M  V30 3 1 1 10
M  V30 4 3 2 4
M  V30 5 1 2 12
M  V30 6 2 3 5
M  V30 7 1 3 11
M  V30 8 1 4 5
M  V30 9 2 4 8
M  V30 10 1 5 6
M  V30 11 1 6 9
M  V30 12 1 6 13
M  V30 13 1 7 8
M  V30 14 1 7 9
M  V30 15 1 7 14
M  V30 16 1 9 15
M  V30 END BOND
M  V30 END CTAB
M  END
>  <ID>
795
$$$$
Structure_796
Score 	 6.0, smilesprid 	smiles	 smilestrue 	smiles	 similartanimoto 	0	 similardice 	0

   15   16  0  0  0  0            999 V3000
M  V30 BEGIN CTAB
M  V30 COUNTS 15 16 0 0 0
M  V30 BEGIN ATOM
M  V30 1 C -2.5391 -0.1953 0.0000 0
M  V30 2 C -1.7578 -1.3672 0.0000 0
M  V30 3 C -1.7578 0.9766 0.0000 0
M  V30 4 C -0.3906 -0.7812 0.0000 0
M  V30 5 C -0.3906 0.5859 0.0000 0
M  V30 6 C 0.7812 1.1719 0.0000 0
M  V30 7 C 1.9531 -0.7812 0.0000 0
M  V30 8 N 0.7812 -1.5625 0.0000 0
M  V30 9 N 1.9531 0.3906 0.0000 0
M  V30 10 H -3.5156 -0.1953 0.0000 0
M  V30 11 H -2.1484 2.1484 0.0000 0
M  V30 12 H -1.9531 -2.3438 0.0000 0
M  V30 13 H 0.9766 2.3438 0.0000 0
M  V30 14 H 2.9297 -1.3672 0.0000 0
M  V30 15 H 2.7344 0.9766 0.0000 0
M  V30 END ATOM
M  V30 BEGIN BOND
M  V30 1 1 1 2
M  V30 2 2 1 3
M  V30 3 1 1 10
M  V30 4 3 2 4
M  V30 5 1 2 12
M  V30 6 2 3 5
M  V30 7 1 3 11
M  V30 8 1 4 5
M  V30 9 2 4 8
M  V30 10 1 5 6
M  V30 11 1 6 9
M  V30 12 1 6 13
M  V30 13 1 7 8
M  V30 14 1 7 9
M  V30 15 1 7 14
M  V30 16 1 9 15
M  V30 END BOND
M  V30 END CTAB
M  END
>  <ID>
796
$$$$
Structure_797
Score 	 8.0, smilesprid 	smiles	 smilestrue 	smiles	 similartanimoto 	0	 similardice 	0

   15   16  0  0  0  0            999 V3000
M  V30 BEGIN CTAB
M  V30 COUNTS 15 16 0 0 0
M  V30 BEGIN ATOM
M  V30 1 C -2.5391 -0.1953 0.0000 0
M  V30 2 C -1.7578 -1.3672 0.0000 0
M  V30 3 C -1.7578 0.9766 0.0000 0
M  V30 4 C -0.3906 -0.7812 0.0000 0
M  V30 5 C -0.3906 0.5859 0.0000 0
M  V30 6 C 0.7812 1.1719 0.0000 0
M  V30 7 C 1.9531 -0.7812 0.0000 0
M  V30 8 N 0.7812 -1.5625 0.0000 0
M  V30 9 N 1.9531 0.3906 0.0000 0
M  V30 10 H -3.5156 -0.1953 0.0000 0
M  V30 11 H -2.1484 2.1484 0.0000 0
M  V30 12 H -1.9531 -2.3438 0.0000 0
M  V30 13 H 0.9766 2.3438 0.0000 0
M  V30 14 H 2.9297 -1.3672 0.0000 0
M  V30 15 H 2.7344 0.9766 0.0000 0
M  V30 END ATOM
M  V30 BEGIN BOND
M  V30 1 2 1 2
M  V30 2 2 1 3
M  V30 3 1 1 10
M  V30 4 3 2 4
M  V30 5 1 2 12
M  V30 6 2 3 5
M  V30 7 1 3 11
M  V30 8 1 4 5
M  V30 9 2 4 8
M  V30 10 1 5 6
M  V30 11 1 6 9
M  V30 12 1 6 13
M  V30 13 1 7 8
M  V30 14 1 7 9
M  V30 15 1 7 14
M  V30 16 1 9 15
M  V30 END BOND
M  V30 END CTAB
M  END
>  <ID>
797
$$$$
Structure_798
Score 	 10.0, smilesprid 	smiles	 smilestrue 	smiles	 similartanimoto 	0	 similardice 	0

   15   16  0  0  0  0            999 V3000
M  V30 BEGIN CTAB
M  V30 COUNTS 15 16 0 0 0
M  V30 BEGIN ATOM
M  V30 1 C -2.5391 -0.1953 0.0000 0
M  V30 2 C -1.7578 -1.3672 0.0000 0
M  V30 3 C -1.7578 0.9766 0.0000 0
M  V30 4 C -0.3906 -0.7812 0.0000 0
M  V30 5 C -0.3906 0.5859 0.0000 0
M  V30 6 C 0.7812 1.1719 0.0000 0
M  V30 7 C 1.9531 -0.7812 0.0000 0
M  V30 8 N 0.7812 -1.5625 0.0000 0
M  V30 9 N 1.9531 0.3906 0.0000 0
M  V30 10 H -3.5156 -0.1953 0.0000 0
M  V30 11 H -2.1484 2.1484 0.0000 0
M  V30 12 H -1.9531 -2.3438 0.0000 0
M  V30 13 H 0.9766 2.3438 0.0000 0
M  V30 14 H 2.9297 -1.3672 0.0000 0
M  V30 15 H 2.7344 0.9766 0.0000 0
M  V30 END ATOM
M  V30 BEGIN BOND
M  V30 1 3 1 2
M  V30 2 2 1 3
M  V30 3 1 1 10
M  V30 4 3 2 4
M  V30 5 1 2 12
M  V30 6 2 3 5
M  V30 7 1 3 11
M  V30 8 1 4 5
M  V30 9 2 4 8
M  V30 10 1 5 6
M  V30 11 1 6 9
M  V30 12 1 6 13
M  V30 13 1 7 8
M  V30 14 1 7 9
M  V30 15 1 7 14
M  V30 16 1 9 15
M  V30 END BOND
M  V30 END CTAB
M  END
>  <ID>
798
$$$$
Structure_799
Score 	 8.0, smilesprid 	smiles	 smilestrue 	smiles	 similartanimoto 	0	 similardice 	0

   15   16  0  0  0  0            999 V3000
M  V30 BEGIN CTAB
M  V30 COUNTS 15 16 0 0 0
M  V30 BEGIN ATOM
M  V30 1 C -2.5391 -0.1953 0.0000 0
M  V30 2 C -1.7578 -1.3672 0.0000 0
M  V30 3 C -1.7578 0.9766 0.0000 0
M  V30 4 C -0.3906 -0.7812 0.0000 0
M  V30 5 C -0.3906 0.5859 0.0000 0
M  V30 6 C 0.7812 1.1719 0.0000 0
M  V30 7 C 1.9531 -0.7812 0.0000 0
M  V30 8 N 0.7812 -1.5625 0.0000 0
M  V30 9 N 1.9531 0.3906 0.0000 0
M  V30 10 H -3.5156 -0.1953 0.0000 0
M  V30 11 H -2.1484 2.1484 0.0000 0
M  V30 12 H -1.9531 -2.3438 0.0000 0
M  V30 13 H 0.9766 2.3438 0.0000 0
M  V30 14 H 2.9297 -1.3672 0.0000 0
M  V30 15 H 2.7344 0.9766 0.0000 0
M  V30 END ATOM
M  V30 BEGIN BOND
M  V30 1 1 1 2
M  V30 2 3 1 3
M  V30 3 1 1 10
M  V30 4 3 2 4
M  V30 5 1 2 12
M  V30 6 2 3 5
M  V30 7 1 3 11
M  V30 8 1 4 5
M  V30 9 2 4 8
M  V30 10 1 5 6
M  V30 11 1 6 9
M  V30 12 1 6 13
M  V30 13 1 7 8
M  V30 14 1 7 9
M  V30 15 1 7 14
M  V30 16 1 9 15
M  V30 END BOND
M  V30 END CTAB
M  END
>  <ID>
799
$$$$
Structure_800
Score 	 10.0, smilesprid 	smiles	 smilestrue 	smiles	 similartanimoto 	0	 similardice 	0

   15   16  0  0  0  0            999 V3000
M  V30 BEGIN CTAB
M  V30 COUNTS 15 16 0 0 0
M  V30 BEGIN ATOM
M  V30 1 C -2.5391 -0.1953 0.0000 0
M  V30 2 C -1.7578 -1.3672 0.0000 0
M  V30 3 C -1.7578 0.9766 0.0000 0
M  V30 4 C -0.3906 -0.7812 0.0000 0
M  V30 5 C -0.3906 0.5859 0.0000 0
M  V30 6 C 0.7812 1.1719 0.0000 0
M  V30 7 C 1.9531 -0.7812 0.0000 0
M  V30 8 N 0.7812 -1.5625 0.0000 0
M  V30 9 N 1.9531 0.3906 0.0000 0
M  V30 10 H -3.5156 -0.1953 0.0000 0
M  V30 11 H -2.1484 2.1484 0.0000 0
M  V30 12 H -1.9531 -2.3438 0.0000 0
M  V30 13 H 0.9766 2.3438 0.0000 0
M  V30 14 H 2.9297 -1.3672 0.0000 0
M  V30 15 H 2.7344 0.9766 0.0000 0
M  V30 END ATOM
M  V30 BEGIN BOND
M  V30 1 2 1 2
M  V30 2 3 1 3
M  V30 3 1 1 10
M  V30 4 3 2 4
M  V30 5 1 2 12
M  V30 6 2 3 5
M  V30 7 1 3 11
M  V30 8 1 4 5
M  V30 9 2 4 8
M  V30 10 1 5 6
M  V30 11 1 6 9
M  V30 12 1 6 13
M  V30 13 1 7 8
M  V30 14 1 7 9
M  V30 15 1 7 14
M  V30 16 1 9 15
M  V30 END BOND
M  V30 END CTAB
M  END
>  <ID>
800
$$$$
Structure_801
Score 	 12.0, smilesprid 	smiles	 smilestrue 	smiles	 similartanimoto 	0	 similardice 	0

   15   16  0  0  0  0            999 V3000
M  V30 BEGIN CTAB
M  V30 COUNTS 15 16 0 0 0
M  V30 BEGIN ATOM
M  V30 1 C -2.5391 -0.1953 0.0000 0
M  V30 2 C -1.7578 -1.3672 0.0000 0
M  V30 3 C -1.7578 0.9766 0.0000 0
M  V30 4 C -0.3906 -0.7812 0.0000 0
M  V30 5 C -0.3906 0.5859 0.0000 0
M  V30 6 C 0.7812 1.1719 0.0000 0
M  V30 7 C 1.9531 -0.7812 0.0000 0
M  V30 8 N 0.7812 -1.5625 0.0000 0
M  V30 9 N 1.9531 0.3906 0.0000 0
M  V30 10 H -3.5156 -0.1953 0.0000 0
M  V30 11 H -2.1484 2.1484 0.0000 0
M  V30 12 H -1.9531 -2.3438 0.0000 0
M  V30 13 H 0.9766 2.3438 0.0000 0
M  V30 14 H 2.9297 -1.3672 0.0000 0
M  V30 15 H 2.7344 0.9766 0.0000 0
M  V30 END ATOM
M  V30 BEGIN BOND
M  V30 1 3 1 2
M  V30 2 3 1 3
M  V30 3 1 1 10
M  V30 4 3 2 4
M  V30 5 1 2 12
M  V30 6 2 3 5
M  V30 7 1 3 11
M  V30 8 1 4 5
M  V30 9 2 4 8
M  V30 10 1 5 6
M  V30 11 1 6 9
M  V30 12 1 6 13
M  V30 13 1 7 8
M  V30 14 1 7 9
M  V30 15 1 7 14
M  V30 16 1 9 15
M  V30 END BOND
M  V30 END CTAB
M  END
>  <ID>
801
$$$$
Structure_802
Score 	 8.0, smilesprid 	smiles	 smilestrue 	smiles	 similartanimoto 	0	 similardice 	0

   15   16  0  0  0  0            999 V3000
M  V30 BEGIN CTAB
M  V30 COUNTS 15 16 0 0 0
M  V30 BEGIN ATOM
M  V30 1 C -2.5391 -0.1953 0.0000 0
M  V30 2 C -1.7578 -1.3672 0.0000 0
M  V30 3 C -1.7578 0.9766 0.0000 0
M  V30 4 C -0.3906 -0.7812 0.0000 0
M  V30 5 C -0.3906 0.5859 0.0000 0
M  V30 6 C 0.7812 1.1719 0.0000 0
M  V30 7 C 1.9531 -0.7812 0.0000 0
M  V30 8 N 0.7812 -1.5625 0.0000 0
M  V30 9 N 1.9531 0.3906 0.0000 0
M  V30 10 H -3.5156 -0.1953 0.0000 0
M  V30 11 H -2.1484 2.1484 0.0000 0
M  V30 12 H -1.9531 -2.3438 0.0000 0
M  V30 13 H 0.9766 2.3438 0.0000 0
M  V30 14 H 2.9297 -1.3672 0.0000 0
M  V30 15 H 2.7344 0.9766 0.0000 0
M  V30 END ATOM
M  V30 BEGIN BOND
M  V30 1 1 1 2
M  V30 2 1 1 3
M  V30 3 1 1 10
M  V30 4 3 2 4
M  V30 5 1 2 12
M  V30 6 3 3 5
M  V30 7 1 3 11
M  V30 8 1 4 5
M  V30 9 2 4 8
M  V30 10 1 5 6
M  V30 11 1 6 9
M  V30 12 1 6 13
M  V30 13 1 7 8
M  V30 14 1 7 9
M  V30 15 1 7 14
M  V30 16 1 9 15
M  V30 END BOND
M  V30 END CTAB
M  END
>  <ID>
802
$$$$
Structure_803
Score 	 8.0, smilesprid 	smiles	 smilestrue 	smiles	 similartanimoto 	0	 similardice 	0

   15   16  0  0  0  0            999 V3000
M  V30 BEGIN CTAB
M  V30 COUNTS 15 16 0 0 0
M  V30 BEGIN ATOM
M  V30 1 C -2.5391 -0.1953 0.0000 0
M  V30 2 C -1.7578 -1.3672 0.0000 0
M  V30 3 C -1.7578 0.9766 0.0000 0
M  V30 4 C -0.3906 -0.7812 0.0000 0
M  V30 5 C -0.3906 0.5859 0.0000 0
M  V30 6 C 0.7812 1.1719 0.0000 0
M  V30 7 C 1.9531 -0.7812 0.0000 0
M  V30 8 N 0.7812 -1.5625 0.0000 0
M  V30 9 N 1.9531 0.3906 0.0000 0
M  V30 10 H -3.5156 -0.1953 0.0000 0
M  V30 11 H -2.1484 2.1484 0.0000 0
M  V30 12 H -1.9531 -2.3438 0.0000 0
M  V30 13 H 0.9766 2.3438 0.0000 0
M  V30 14 H 2.9297 -1.3672 0.0000 0
M  V30 15 H 2.7344 0.9766 0.0000 0
M  V30 END ATOM
M  V30 BEGIN BOND
M  V30 1 2 1 2
M  V30 2 1 1 3
M  V30 3 1 1 10
M  V30 4 3 2 4
M  V30 5 1 2 12
M  V30 6 3 3 5
M  V30 7 1 3 11
M  V30 8 1 4 5
M  V30 9 2 4 8
M  V30 10 1 5 6
M  V30 11 1 6 9
M  V30 12 1 6 13
M  V30 13 1 7 8
M  V30 14 1 7 9
M  V30 15 1 7 14
M  V30 16 1 9 15
M  V30 END BOND
M  V30 END CTAB
M  END
>  <ID>
803
$$$$
Structure_804
Score 	 10.0, smilesprid 	smiles	 smilestrue 	smiles	 similartanimoto 	0	 similardice 	0

   15   16  0  0  0  0            999 V3000
M  V30 BEGIN CTAB
M  V30 COUNTS 15 16 0 0 0
M  V30 BEGIN ATOM
M  V30 1 C -2.5391 -0.1953 0.0000 0
M  V30 2 C -1.7578 -1.3672 0.0000 0
M  V30 3 C -1.7578 0.9766 0.0000 0
M  V30 4 C -0.3906 -0.7812 0.0000 0
M  V30 5 C -0.3906 0.5859 0.0000 0
M  V30 6 C 0.7812 1.1719 0.0000 0
M  V30 7 C 1.9531 -0.7812 0.0000 0
M  V30 8 N 0.7812 -1.5625 0.0000 0
M  V30 9 N 1.9531 0.3906 0.0000 0
M  V30 10 H -3.5156 -0.1953 0.0000 0
M  V30 11 H -2.1484 2.1484 0.0000 0
M  V30 12 H -1.9531 -2.3438 0.0000 0
M  V30 13 H 0.9766 2.3438 0.0000 0
M  V30 14 H 2.9297 -1.3672 0.0000 0
M  V30 15 H 2.7344 0.9766 0.0000 0
M  V30 END ATOM
M  V30 BEGIN BOND
M  V30 1 3 1 2
M  V30 2 1 1 3
M  V30 3 1 1 10
M  V30 4 3 2 4
M  V30 5 1 2 12
M  V30 6 3 3 5
M  V30 7 1 3 11
M  V30 8 1 4 5
M  V30 9 2 4 8
M  V30 10 1 5 6
M  V30 11 1 6 9
M  V30 12 1 6 13
M  V30 13 1 7 8
M  V30 14 1 7 9
M  V30 15 1 7 14
M  V30 16 1 9 15
M  V30 END BOND
M  V30 END CTAB
M  END
>  <ID>
804
$$$$
Structure_805
Score 	 8.0, smilesprid 	smiles	 smilestrue 	smiles	 similartanimoto 	0	 similardice 	0

   15   16  0  0  0  0            999 V3000
M  V30 BEGIN CTAB
M  V30 COUNTS 15 16 0 0 0
M  V30 BEGIN ATOM
M  V30 1 C -2.5391 -0.1953 0.0000 0
M  V30 2 C -1.7578 -1.3672 0.0000 0
M  V30 3 C -1.7578 0.9766 0.0000 0
M  V30 4 C -0.3906 -0.7812 0.0000 0
M  V30 5 C -0.3906 0.5859 0.0000 0
M  V30 6 C 0.7812 1.1719 0.0000 0
M  V30 7 C 1.9531 -0.7812 0.0000 0
M  V30 8 N 0.7812 -1.5625 0.0000 0
M  V30 9 N 1.9531 0.3906 0.0000 0
M  V30 10 H -3.5156 -0.1953 0.0000 0
M  V30 11 H -2.1484 2.1484 0.0000 0
M  V30 12 H -1.9531 -2.3438 0.0000 0
M  V30 13 H 0.9766 2.3438 0.0000 0
M  V30 14 H 2.9297 -1.3672 0.0000 0
M  V30 15 H 2.7344 0.9766 0.0000 0
M  V30 END ATOM
M  V30 BEGIN BOND
M  V30 1 1 1 2
M  V30 2 2 1 3
M  V30 3 1 1 10
M  V30 4 3 2 4
M  V30 5 1 2 12
M  V30 6 3 3 5
M  V30 7 1 3 11
M  V30 8 1 4 5
M  V30 9 2 4 8
M  V30 10 1 5 6
M  V30 11 1 6 9
M  V30 12 1 6 13
M  V30 13 1 7 8
M  V30 14 1 7 9
M  V30 15 1 7 14
M  V30 16 1 9 15
M  V30 END BOND
M  V30 END CTAB
M  END
>  <ID>
805
$$$$
Structure_806
Score 	 10.0, smilesprid 	smiles	 smilestrue 	smiles	 similartanimoto 	0	 similardice 	0

   15   16  0  0  0  0            999 V3000
M  V30 BEGIN CTAB
M  V30 COUNTS 15 16 0 0 0
M  V30 BEGIN ATOM
M  V30 1 C -2.5391 -0.1953 0.0000 0
M  V30 2 C -1.7578 -1.3672 0.0000 0
M  V30 3 C -1.7578 0.9766 0.0000 0
M  V30 4 C -0.3906 -0.7812 0.0000 0
M  V30 5 C -0.3906 0.5859 0.0000 0
M  V30 6 C 0.7812 1.1719 0.0000 0
M  V30 7 C 1.9531 -0.7812 0.0000 0
M  V30 8 N 0.7812 -1.5625 0.0000 0
M  V30 9 N 1.9531 0.3906 0.0000 0
M  V30 10 H -3.5156 -0.1953 0.0000 0
M  V30 11 H -2.1484 2.1484 0.0000 0
M  V30 12 H -1.9531 -2.3438 0.0000 0
M  V30 13 H 0.9766 2.3438 0.0000 0
M  V30 14 H 2.9297 -1.3672 0.0000 0
M  V30 15 H 2.7344 0.9766 0.0000 0
M  V30 END ATOM
M  V30 BEGIN BOND
M  V30 1 2 1 2
M  V30 2 2 1 3
M  V30 3 1 1 10
M  V30 4 3 2 4
M  V30 5 1 2 12
M  V30 6 3 3 5
M  V30 7 1 3 11
M  V30 8 1 4 5
M  V30 9 2 4 8
M  V30 10 1 5 6
M  V30 11 1 6 9
M  V30 12 1 6 13
M  V30 13 1 7 8
M  V30 14 1 7 9
M  V30 15 1 7 14
M  V30 16 1 9 15
M  V30 END BOND
M  V30 END CTAB
M  END
>  <ID>
806
$$$$
Structure_807
Score 	 12.0, smilesprid 	smiles	 smilestrue 	smiles	 similartanimoto 	0	 similardice 	0

   15   16  0  0  0  0            999 V3000
M  V30 BEGIN CTAB
M  V30 COUNTS 15 16 0 0 0
M  V30 BEGIN ATOM
M  V30 1 C -2.5391 -0.1953 0.0000 0
M  V30 2 C -1.7578 -1.3672 0.0000 0
M  V30 3 C -1.7578 0.9766 0.0000 0
M  V30 4 C -0.3906 -0.7812 0.0000 0
M  V30 5 C -0.3906 0.5859 0.0000 0
M  V30 6 C 0.7812 1.1719 0.0000 0
M  V30 7 C 1.9531 -0.7812 0.0000 0
M  V30 8 N 0.7812 -1.5625 0.0000 0
M  V30 9 N 1.9531 0.3906 0.0000 0
M  V30 10 H -3.5156 -0.1953 0.0000 0
M  V30 11 H -2.1484 2.1484 0.0000 0
M  V30 12 H -1.9531 -2.3438 0.0000 0
M  V30 13 H 0.9766 2.3438 0.0000 0
M  V30 14 H 2.9297 -1.3672 0.0000 0
M  V30 15 H 2.7344 0.9766 0.0000 0
M  V30 END ATOM
M  V30 BEGIN BOND
M  V30 1 3 1 2
M  V30 2 2 1 3
M  V30 3 1 1 10
M  V30 4 3 2 4
M  V30 5 1 2 12
M  V30 6 3 3 5
M  V30 7 1 3 11
M  V30 8 1 4 5
M  V30 9 2 4 8
M  V30 10 1 5 6
M  V30 11 1 6 9
M  V30 12 1 6 13
M  V30 13 1 7 8
M  V30 14 1 7 9
M  V30 15 1 7 14
M  V30 16 1 9 15
M  V30 END BOND
M  V30 END CTAB
M  END
>  <ID>
807
$$$$
Structure_808
Score 	 10.0, smilesprid 	smiles	 smilestrue 	smiles	 similartanimoto 	0	 similardice 	0

   15   16  0  0  0  0            999 V3000
M  V30 BEGIN CTAB
M  V30 COUNTS 15 16 0 0 0
M  V30 BEGIN ATOM
M  V30 1 C -2.5391 -0.1953 0.0000 0
M  V30 2 C -1.7578 -1.3672 0.0000 0
M  V30 3 C -1.7578 0.9766 0.0000 0
M  V30 4 C -0.3906 -0.7812 0.0000 0
M  V30 5 C -0.3906 0.5859 0.0000 0
M  V30 6 C 0.7812 1.1719 0.0000 0
M  V30 7 C 1.9531 -0.7812 0.0000 0
M  V30 8 N 0.7812 -1.5625 0.0000 0
M  V30 9 N 1.9531 0.3906 0.0000 0
M  V30 10 H -3.5156 -0.1953 0.0000 0
M  V30 11 H -2.1484 2.1484 0.0000 0
M  V30 12 H -1.9531 -2.3438 0.0000 0
M  V30 13 H 0.9766 2.3438 0.0000 0
M  V30 14 H 2.9297 -1.3672 0.0000 0
M  V30 15 H 2.7344 0.9766 0.0000 0
M  V30 END ATOM
M  V30 BEGIN BOND
M  V30 1 1 1 2
M  V30 2 3 1 3
M  V30 3 1 1 10
M  V30 4 3 2 4
M  V30 5 1 2 12
M  V30 6 3 3 5
M  V30 7 1 3 11
M  V30 8 1 4 5
M  V30 9 2 4 8
M  V30 10 1 5 6
M  V30 11 1 6 9
M  V30 12 1 6 13
M  V30 13 1 7 8
M  V30 14 1 7 9
M  V30 15 1 7 14
M  V30 16 1 9 15
M  V30 END BOND
M  V30 END CTAB
M  END
>  <ID>
808
$$$$
Structure_809
Score 	 12.0, smilesprid 	smiles	 smilestrue 	smiles	 similartanimoto 	0	 similardice 	0

   15   16  0  0  0  0            999 V3000
M  V30 BEGIN CTAB
M  V30 COUNTS 15 16 0 0 0
M  V30 BEGIN ATOM
M  V30 1 C -2.5391 -0.1953 0.0000 0
M  V30 2 C -1.7578 -1.3672 0.0000 0
M  V30 3 C -1.7578 0.9766 0.0000 0
M  V30 4 C -0.3906 -0.7812 0.0000 0
M  V30 5 C -0.3906 0.5859 0.0000 0
M  V30 6 C 0.7812 1.1719 0.0000 0
M  V30 7 C 1.9531 -0.7812 0.0000 0
M  V30 8 N 0.7812 -1.5625 0.0000 0
M  V30 9 N 1.9531 0.3906 0.0000 0
M  V30 10 H -3.5156 -0.1953 0.0000 0
M  V30 11 H -2.1484 2.1484 0.0000 0
M  V30 12 H -1.9531 -2.3438 0.0000 0
M  V30 13 H 0.9766 2.3438 0.0000 0
M  V30 14 H 2.9297 -1.3672 0.0000 0
M  V30 15 H 2.7344 0.9766 0.0000 0
M  V30 END ATOM
M  V30 BEGIN BOND
M  V30 1 2 1 2
M  V30 2 3 1 3
M  V30 3 1 1 10
M  V30 4 3 2 4
M  V30 5 1 2 12
M  V30 6 3 3 5
M  V30 7 1 3 11
M  V30 8 1 4 5
M  V30 9 2 4 8
M  V30 10 1 5 6
M  V30 11 1 6 9
M  V30 12 1 6 13
M  V30 13 1 7 8
M  V30 14 1 7 9
M  V30 15 1 7 14
M  V30 16 1 9 15
M  V30 END BOND
M  V30 END CTAB
M  END
>  <ID>
809
$$$$
Structure_810
Score 	 14.0, smilesprid 	smiles	 smilestrue 	smiles	 similartanimoto 	0	 similardice 	0

   15   16  0  0  0  0            999 V3000
M  V30 BEGIN CTAB
M  V30 COUNTS 15 16 0 0 0
M  V30 BEGIN ATOM
M  V30 1 C -2.5391 -0.1953 0.0000 0
M  V30 2 C -1.7578 -1.3672 0.0000 0
M  V30 3 C -1.7578 0.9766 0.0000 0
M  V30 4 C -0.3906 -0.7812 0.0000 0
M  V30 5 C -0.3906 0.5859 0.0000 0
M  V30 6 C 0.7812 1.1719 0.0000 0
M  V30 7 C 1.9531 -0.7812 0.0000 0
M  V30 8 N 0.7812 -1.5625 0.0000 0
M  V30 9 N 1.9531 0.3906 0.0000 0
M  V30 10 H -3.5156 -0.1953 0.0000 0
M  V30 11 H -2.1484 2.1484 0.0000 0
M  V30 12 H -1.9531 -2.3438 0.0000 0
M  V30 13 H 0.9766 2.3438 0.0000 0
M  V30 14 H 2.9297 -1.3672 0.0000 0
M  V30 15 H 2.7344 0.9766 0.0000 0
M  V30 END ATOM
M  V30 BEGIN BOND
M  V30 1 3 1 2
M  V30 2 3 1 3
M  V30 3 1 1 10
M  V30 4 3 2 4
M  V30 5 1 2 12
M  V30 6 3 3 5
M  V30 7 1 3 11
M  V30 8 1 4 5
M  V30 9 2 4 8
M  V30 10 1 5 6
M  V30 11 1 6 9
M  V30 12 1 6 13
M  V30 13 1 7 8
M  V30 14 1 7 9
M  V30 15 1 7 14
M  V30 16 1 9 15
M  V30 END BOND
M  V30 END CTAB
M  END
>  <ID>
810
$$$$
Structure_811
Score 	 6.0, smilesprid 	smiles	 smilestrue 	smiles	 similartanimoto 	0	 similardice 	0

   15   16  0  0  0  0            999 V3000
M  V30 BEGIN CTAB
M  V30 COUNTS 15 16 0 0 0
M  V30 BEGIN ATOM
M  V30 1 C -2.5391 -0.1953 0.0000 0
M  V30 2 C -1.7578 -1.3672 0.0000 0
M  V30 3 C -1.7578 0.9766 0.0000 0
M  V30 4 C -0.3906 -0.7812 0.0000 0
M  V30 5 C -0.3906 0.5859 0.0000 0
M  V30 6 C 0.7812 1.1719 0.0000 0
M  V30 7 C 1.9531 -0.7812 0.0000 0
M  V30 8 N 0.7812 -1.5625 0.0000 0
M  V30 9 N 1.9531 0.3906 0.0000 0
M  V30 10 H -3.5156 -0.1953 0.0000 0
M  V30 11 H -2.1484 2.1484 0.0000 0
M  V30 12 H -1.9531 -2.3438 0.0000 0
M  V30 13 H 0.9766 2.3438 0.0000 0
M  V30 14 H 2.9297 -1.3672 0.0000 0
M  V30 15 H 2.7344 0.9766 0.0000 0
M  V30 END ATOM
M  V30 BEGIN BOND
M  V30 1 1 1 2
M  V30 2 1 1 3
M  V30 3 1 1 10
M  V30 4 1 2 4
M  V30 5 1 2 12
M  V30 6 1 3 5
M  V30 7 1 3 11
M  V30 8 2 4 5
M  V30 9 2 4 8
M  V30 10 1 5 6
M  V30 11 1 6 9
M  V30 12 1 6 13
M  V30 13 1 7 8
M  V30 14 1 7 9
M  V30 15 1 7 14
M  V30 16 1 9 15
M  V30 END BOND
M  V30 END CTAB
M  END
>  <ID>
811
$$$$
Structure_812
Score 	 4.0, smilesprid 	smiles	 smilestrue 	smiles	 similartanimoto 	0	 similardice 	0

   15   16  0  0  0  0            999 V3000
M  V30 BEGIN CTAB
M  V30 COUNTS 15 16 0 0 0
M  V30 BEGIN ATOM
M  V30 1 C -2.5391 -0.1953 0.0000 0
M  V30 2 C -1.7578 -1.3672 0.0000 0
M  V30 3 C -1.7578 0.9766 0.0000 0
M  V30 4 C -0.3906 -0.7812 0.0000 0
M  V30 5 C -0.3906 0.5859 0.0000 0
M  V30 6 C 0.7812 1.1719 0.0000 0
M  V30 7 C 1.9531 -0.7812 0.0000 0
M  V30 8 N 0.7812 -1.5625 0.0000 0
M  V30 9 N 1.9531 0.3906 0.0000 0
M  V30 10 H -3.5156 -0.1953 0.0000 0
M  V30 11 H -2.1484 2.1484 0.0000 0
M  V30 12 H -1.9531 -2.3438 0.0000 0
M  V30 13 H 0.9766 2.3438 0.0000 0
M  V30 14 H 2.9297 -1.3672 0.0000 0
M  V30 15 H 2.7344 0.9766 0.0000 0
M  V30 END ATOM
M  V30 BEGIN BOND
M  V30 1 2 1 2
M  V30 2 1 1 3
M  V30 3 1 1 10
M  V30 4 1 2 4
M  V30 5 1 2 12
M  V30 6 1 3 5
M  V30 7 1 3 11
M  V30 8 2 4 5
M  V30 9 2 4 8
M  V30 10 1 5 6
M  V30 11 1 6 9
M  V30 12 1 6 13
M  V30 13 1 7 8
M  V30 14 1 7 9
M  V30 15 1 7 14
M  V30 16 1 9 15
M  V30 END BOND
M  V30 END CTAB
M  END
>  <ID>
812
$$$$
Structure_813
Score 	 6.0, smilesprid 	smiles	 smilestrue 	smiles	 similartanimoto 	0	 similardice 	0

   15   16  0  0  0  0            999 V3000
M  V30 BEGIN CTAB
M  V30 COUNTS 15 16 0 0 0
M  V30 BEGIN ATOM
M  V30 1 C -2.5391 -0.1953 0.0000 0
M  V30 2 C -1.7578 -1.3672 0.0000 0
M  V30 3 C -1.7578 0.9766 0.0000 0
M  V30 4 C -0.3906 -0.7812 0.0000 0
M  V30 5 C -0.3906 0.5859 0.0000 0
M  V30 6 C 0.7812 1.1719 0.0000 0
M  V30 7 C 1.9531 -0.7812 0.0000 0
M  V30 8 N 0.7812 -1.5625 0.0000 0
M  V30 9 N 1.9531 0.3906 0.0000 0
M  V30 10 H -3.5156 -0.1953 0.0000 0
M  V30 11 H -2.1484 2.1484 0.0000 0
M  V30 12 H -1.9531 -2.3438 0.0000 0
M  V30 13 H 0.9766 2.3438 0.0000 0
M  V30 14 H 2.9297 -1.3672 0.0000 0
M  V30 15 H 2.7344 0.9766 0.0000 0
M  V30 END ATOM
M  V30 BEGIN BOND
M  V30 1 3 1 2
M  V30 2 1 1 3
M  V30 3 1 1 10
M  V30 4 1 2 4
M  V30 5 1 2 12
M  V30 6 1 3 5
M  V30 7 1 3 11
M  V30 8 2 4 5
M  V30 9 2 4 8
M  V30 10 1 5 6
M  V30 11 1 6 9
M  V30 12 1 6 13
M  V30 13 1 7 8
M  V30 14 1 7 9
M  V30 15 1 7 14
M  V30 16 1 9 15
M  V30 END BOND
M  V30 END CTAB
M  END
>  <ID>
813
$$$$
Structure_814
Score 	 4.0, smilesprid 	smiles	 smilestrue 	smiles	 similartanimoto 	0	 similardice 	0

   15   16  0  0  0  0            999 V3000
M  V30 BEGIN CTAB
M  V30 COUNTS 15 16 0 0 0
M  V30 BEGIN ATOM
M  V30 1 C -2.5391 -0.1953 0.0000 0
M  V30 2 C -1.7578 -1.3672 0.0000 0
M  V30 3 C -1.7578 0.9766 0.0000 0
M  V30 4 C -0.3906 -0.7812 0.0000 0
M  V30 5 C -0.3906 0.5859 0.0000 0
M  V30 6 C 0.7812 1.1719 0.0000 0
M  V30 7 C 1.9531 -0.7812 0.0000 0
M  V30 8 N 0.7812 -1.5625 0.0000 0
M  V30 9 N 1.9531 0.3906 0.0000 0
M  V30 10 H -3.5156 -0.1953 0.0000 0
M  V30 11 H -2.1484 2.1484 0.0000 0
M  V30 12 H -1.9531 -2.3438 0.0000 0
M  V30 13 H 0.9766 2.3438 0.0000 0
M  V30 14 H 2.9297 -1.3672 0.0000 0
M  V30 15 H 2.7344 0.9766 0.0000 0
M  V30 END ATOM
M  V30 BEGIN BOND
M  V30 1 1 1 2
M  V30 2 2 1 3
M  V30 3 1 1 10
M  V30 4 1 2 4
M  V30 5 1 2 12
M  V30 6 1 3 5
M  V30 7 1 3 11
M  V30 8 2 4 5
M  V30 9 2 4 8
M  V30 10 1 5 6
M  V30 11 1 6 9
M  V30 12 1 6 13
M  V30 13 1 7 8
M  V30 14 1 7 9
M  V30 15 1 7 14
M  V30 16 1 9 15
M  V30 END BOND
M  V30 END CTAB
M  END
>  <ID>
814
$$$$
Structure_815
Score 	 4.0, smilesprid 	smiles	 smilestrue 	smiles	 similartanimoto 	0	 similardice 	0

   15   16  0  0  0  0            999 V3000
M  V30 BEGIN CTAB
M  V30 COUNTS 15 16 0 0 0
M  V30 BEGIN ATOM
M  V30 1 C -2.5391 -0.1953 0.0000 0
M  V30 2 C -1.7578 -1.3672 0.0000 0
M  V30 3 C -1.7578 0.9766 0.0000 0
M  V30 4 C -0.3906 -0.7812 0.0000 0
M  V30 5 C -0.3906 0.5859 0.0000 0
M  V30 6 C 0.7812 1.1719 0.0000 0
M  V30 7 C 1.9531 -0.7812 0.0000 0
M  V30 8 N 0.7812 -1.5625 0.0000 0
M  V30 9 N 1.9531 0.3906 0.0000 0
M  V30 10 H -3.5156 -0.1953 0.0000 0
M  V30 11 H -2.1484 2.1484 0.0000 0
M  V30 12 H -1.9531 -2.3438 0.0000 0
M  V30 13 H 0.9766 2.3438 0.0000 0
M  V30 14 H 2.9297 -1.3672 0.0000 0
M  V30 15 H 2.7344 0.9766 0.0000 0
M  V30 END ATOM
M  V30 BEGIN BOND
M  V30 1 2 1 2
M  V30 2 2 1 3
M  V30 3 1 1 10
M  V30 4 1 2 4
M  V30 5 1 2 12
M  V30 6 1 3 5
M  V30 7 1 3 11
M  V30 8 2 4 5
M  V30 9 2 4 8
M  V30 10 1 5 6
M  V30 11 1 6 9
M  V30 12 1 6 13
M  V30 13 1 7 8
M  V30 14 1 7 9
M  V30 15 1 7 14
M  V30 16 1 9 15
M  V30 END BOND
M  V30 END CTAB
M  END
>  <ID>
815
$$$$
Structure_816
Score 	 6.0, smilesprid 	smiles	 smilestrue 	smiles	 similartanimoto 	0	 similardice 	0

   15   16  0  0  0  0            999 V3000
M  V30 BEGIN CTAB
M  V30 COUNTS 15 16 0 0 0
M  V30 BEGIN ATOM
M  V30 1 C -2.5391 -0.1953 0.0000 0
M  V30 2 C -1.7578 -1.3672 0.0000 0
M  V30 3 C -1.7578 0.9766 0.0000 0
M  V30 4 C -0.3906 -0.7812 0.0000 0
M  V30 5 C -0.3906 0.5859 0.0000 0
M  V30 6 C 0.7812 1.1719 0.0000 0
M  V30 7 C 1.9531 -0.7812 0.0000 0
M  V30 8 N 0.7812 -1.5625 0.0000 0
M  V30 9 N 1.9531 0.3906 0.0000 0
M  V30 10 H -3.5156 -0.1953 0.0000 0
M  V30 11 H -2.1484 2.1484 0.0000 0
M  V30 12 H -1.9531 -2.3438 0.0000 0
M  V30 13 H 0.9766 2.3438 0.0000 0
M  V30 14 H 2.9297 -1.3672 0.0000 0
M  V30 15 H 2.7344 0.9766 0.0000 0
M  V30 END ATOM
M  V30 BEGIN BOND
M  V30 1 3 1 2
M  V30 2 2 1 3
M  V30 3 1 1 10
M  V30 4 1 2 4
M  V30 5 1 2 12
M  V30 6 1 3 5
M  V30 7 1 3 11
M  V30 8 2 4 5
M  V30 9 2 4 8
M  V30 10 1 5 6
M  V30 11 1 6 9
M  V30 12 1 6 13
M  V30 13 1 7 8
M  V30 14 1 7 9
M  V30 15 1 7 14
M  V30 16 1 9 15
M  V30 END BOND
M  V30 END CTAB
M  END
>  <ID>
816
$$$$
Structure_817
Score 	 6.0, smilesprid 	smiles	 smilestrue 	smiles	 similartanimoto 	0	 similardice 	0

   15   16  0  0  0  0            999 V3000
M  V30 BEGIN CTAB
M  V30 COUNTS 15 16 0 0 0
M  V30 BEGIN ATOM
M  V30 1 C -2.5391 -0.1953 0.0000 0
M  V30 2 C -1.7578 -1.3672 0.0000 0
M  V30 3 C -1.7578 0.9766 0.0000 0
M  V30 4 C -0.3906 -0.7812 0.0000 0
M  V30 5 C -0.3906 0.5859 0.0000 0
M  V30 6 C 0.7812 1.1719 0.0000 0
M  V30 7 C 1.9531 -0.7812 0.0000 0
M  V30 8 N 0.7812 -1.5625 0.0000 0
M  V30 9 N 1.9531 0.3906 0.0000 0
M  V30 10 H -3.5156 -0.1953 0.0000 0
M  V30 11 H -2.1484 2.1484 0.0000 0
M  V30 12 H -1.9531 -2.3438 0.0000 0
M  V30 13 H 0.9766 2.3438 0.0000 0
M  V30 14 H 2.9297 -1.3672 0.0000 0
M  V30 15 H 2.7344 0.9766 0.0000 0
M  V30 END ATOM
M  V30 BEGIN BOND
M  V30 1 1 1 2
M  V30 2 3 1 3
M  V30 3 1 1 10
M  V30 4 1 2 4
M  V30 5 1 2 12
M  V30 6 1 3 5
M  V30 7 1 3 11
M  V30 8 2 4 5
M  V30 9 2 4 8
M  V30 10 1 5 6
M  V30 11 1 6 9
M  V30 12 1 6 13
M  V30 13 1 7 8
M  V30 14 1 7 9
M  V30 15 1 7 14
M  V30 16 1 9 15
M  V30 END BOND
M  V30 END CTAB
M  END
>  <ID>
817
$$$$
Structure_818
Score 	 6.0, smilesprid 	smiles	 smilestrue 	smiles	 similartanimoto 	0	 similardice 	0

   15   16  0  0  0  0            999 V3000
M  V30 BEGIN CTAB
M  V30 COUNTS 15 16 0 0 0
M  V30 BEGIN ATOM
M  V30 1 C -2.5391 -0.1953 0.0000 0
M  V30 2 C -1.7578 -1.3672 0.0000 0
M  V30 3 C -1.7578 0.9766 0.0000 0
M  V30 4 C -0.3906 -0.7812 0.0000 0
M  V30 5 C -0.3906 0.5859 0.0000 0
M  V30 6 C 0.7812 1.1719 0.0000 0
M  V30 7 C 1.9531 -0.7812 0.0000 0
M  V30 8 N 0.7812 -1.5625 0.0000 0
M  V30 9 N 1.9531 0.3906 0.0000 0
M  V30 10 H -3.5156 -0.1953 0.0000 0
M  V30 11 H -2.1484 2.1484 0.0000 0
M  V30 12 H -1.9531 -2.3438 0.0000 0
M  V30 13 H 0.9766 2.3438 0.0000 0
M  V30 14 H 2.9297 -1.3672 0.0000 0
M  V30 15 H 2.7344 0.9766 0.0000 0
M  V30 END ATOM
M  V30 BEGIN BOND
M  V30 1 2 1 2
M  V30 2 3 1 3
M  V30 3 1 1 10
M  V30 4 1 2 4
M  V30 5 1 2 12
M  V30 6 1 3 5
M  V30 7 1 3 11
M  V30 8 2 4 5
M  V30 9 2 4 8
M  V30 10 1 5 6
M  V30 11 1 6 9
M  V30 12 1 6 13
M  V30 13 1 7 8
M  V30 14 1 7 9
M  V30 15 1 7 14
M  V30 16 1 9 15
M  V30 END BOND
M  V30 END CTAB
M  END
>  <ID>
818
$$$$
Structure_819
Score 	 8.0, smilesprid 	smiles	 smilestrue 	smiles	 similartanimoto 	0	 similardice 	0

   15   16  0  0  0  0            999 V3000
M  V30 BEGIN CTAB
M  V30 COUNTS 15 16 0 0 0
M  V30 BEGIN ATOM
M  V30 1 C -2.5391 -0.1953 0.0000 0
M  V30 2 C -1.7578 -1.3672 0.0000 0
M  V30 3 C -1.7578 0.9766 0.0000 0
M  V30 4 C -0.3906 -0.7812 0.0000 0
M  V30 5 C -0.3906 0.5859 0.0000 0
M  V30 6 C 0.7812 1.1719 0.0000 0
M  V30 7 C 1.9531 -0.7812 0.0000 0
M  V30 8 N 0.7812 -1.5625 0.0000 0
M  V30 9 N 1.9531 0.3906 0.0000 0
M  V30 10 H -3.5156 -0.1953 0.0000 0
M  V30 11 H -2.1484 2.1484 0.0000 0
M  V30 12 H -1.9531 -2.3438 0.0000 0
M  V30 13 H 0.9766 2.3438 0.0000 0
M  V30 14 H 2.9297 -1.3672 0.0000 0
M  V30 15 H 2.7344 0.9766 0.0000 0
M  V30 END ATOM
M  V30 BEGIN BOND
M  V30 1 3 1 2
M  V30 2 3 1 3
M  V30 3 1 1 10
M  V30 4 1 2 4
M  V30 5 1 2 12
M  V30 6 1 3 5
M  V30 7 1 3 11
M  V30 8 2 4 5
M  V30 9 2 4 8
M  V30 10 1 5 6
M  V30 11 1 6 9
M  V30 12 1 6 13
M  V30 13 1 7 8
M  V30 14 1 7 9
M  V30 15 1 7 14
M  V30 16 1 9 15
M  V30 END BOND
M  V30 END CTAB
M  END
>  <ID>
819
$$$$
Structure_820
Score 	 6.0, smilesprid 	smiles	 smilestrue 	smiles	 similartanimoto 	0	 similardice 	0

   15   16  0  0  0  0            999 V3000
M  V30 BEGIN CTAB
M  V30 COUNTS 15 16 0 0 0
M  V30 BEGIN ATOM
M  V30 1 C -2.5391 -0.1953 0.0000 0
M  V30 2 C -1.7578 -1.3672 0.0000 0
M  V30 3 C -1.7578 0.9766 0.0000 0
M  V30 4 C -0.3906 -0.7812 0.0000 0
M  V30 5 C -0.3906 0.5859 0.0000 0
M  V30 6 C 0.7812 1.1719 0.0000 0
M  V30 7 C 1.9531 -0.7812 0.0000 0
M  V30 8 N 0.7812 -1.5625 0.0000 0
M  V30 9 N 1.9531 0.3906 0.0000 0
M  V30 10 H -3.5156 -0.1953 0.0000 0
M  V30 11 H -2.1484 2.1484 0.0000 0
M  V30 12 H -1.9531 -2.3438 0.0000 0
M  V30 13 H 0.9766 2.3438 0.0000 0
M  V30 14 H 2.9297 -1.3672 0.0000 0
M  V30 15 H 2.7344 0.9766 0.0000 0
M  V30 END ATOM
M  V30 BEGIN BOND
M  V30 1 1 1 2
M  V30 2 1 1 3
M  V30 3 1 1 10
M  V30 4 1 2 4
M  V30 5 1 2 12
M  V30 6 2 3 5
M  V30 7 1 3 11
M  V30 8 2 4 5
M  V30 9 2 4 8
M  V30 10 1 5 6
M  V30 11 1 6 9
M  V30 12 1 6 13
M  V30 13 1 7 8
M  V30 14 1 7 9
M  V30 15 1 7 14
M  V30 16 1 9 15
M  V30 END BOND
M  V30 END CTAB
M  END
>  <ID>
820
$$$$
Structure_821
Score 	 4.0, smilesprid 	smiles	 smilestrue 	smiles	 similartanimoto 	0	 similardice 	0

   15   16  0  0  0  0            999 V3000
M  V30 BEGIN CTAB
M  V30 COUNTS 15 16 0 0 0
M  V30 BEGIN ATOM
M  V30 1 C -2.5391 -0.1953 0.0000 0
M  V30 2 C -1.7578 -1.3672 0.0000 0
M  V30 3 C -1.7578 0.9766 0.0000 0
M  V30 4 C -0.3906 -0.7812 0.0000 0
M  V30 5 C -0.3906 0.5859 0.0000 0
M  V30 6 C 0.7812 1.1719 0.0000 0
M  V30 7 C 1.9531 -0.7812 0.0000 0
M  V30 8 N 0.7812 -1.5625 0.0000 0
M  V30 9 N 1.9531 0.3906 0.0000 0
M  V30 10 H -3.5156 -0.1953 0.0000 0
M  V30 11 H -2.1484 2.1484 0.0000 0
M  V30 12 H -1.9531 -2.3438 0.0000 0
M  V30 13 H 0.9766 2.3438 0.0000 0
M  V30 14 H 2.9297 -1.3672 0.0000 0
M  V30 15 H 2.7344 0.9766 0.0000 0
M  V30 END ATOM
M  V30 BEGIN BOND
M  V30 1 2 1 2
M  V30 2 1 1 3
M  V30 3 1 1 10
M  V30 4 1 2 4
M  V30 5 1 2 12
M  V30 6 2 3 5
M  V30 7 1 3 11
M  V30 8 2 4 5
M  V30 9 2 4 8
M  V30 10 1 5 6
M  V30 11 1 6 9
M  V30 12 1 6 13
M  V30 13 1 7 8
M  V30 14 1 7 9
M  V30 15 1 7 14
M  V30 16 1 9 15
M  V30 END BOND
M  V30 END CTAB
M  END
>  <ID>
821
$$$$
Structure_822
Score 	 6.0, smilesprid 	smiles	 smilestrue 	smiles	 similartanimoto 	0	 similardice 	0

   15   16  0  0  0  0            999 V3000
M  V30 BEGIN CTAB
M  V30 COUNTS 15 16 0 0 0
M  V30 BEGIN ATOM
M  V30 1 C -2.5391 -0.1953 0.0000 0
M  V30 2 C -1.7578 -1.3672 0.0000 0
M  V30 3 C -1.7578 0.9766 0.0000 0
M  V30 4 C -0.3906 -0.7812 0.0000 0
M  V30 5 C -0.3906 0.5859 0.0000 0
M  V30 6 C 0.7812 1.1719 0.0000 0
M  V30 7 C 1.9531 -0.7812 0.0000 0
M  V30 8 N 0.7812 -1.5625 0.0000 0
M  V30 9 N 1.9531 0.3906 0.0000 0
M  V30 10 H -3.5156 -0.1953 0.0000 0
M  V30 11 H -2.1484 2.1484 0.0000 0
M  V30 12 H -1.9531 -2.3438 0.0000 0
M  V30 13 H 0.9766 2.3438 0.0000 0
M  V30 14 H 2.9297 -1.3672 0.0000 0
M  V30 15 H 2.7344 0.9766 0.0000 0
M  V30 END ATOM
M  V30 BEGIN BOND
M  V30 1 3 1 2
M  V30 2 1 1 3
M  V30 3 1 1 10
M  V30 4 1 2 4
M  V30 5 1 2 12
M  V30 6 2 3 5
M  V30 7 1 3 11
M  V30 8 2 4 5
M  V30 9 2 4 8
M  V30 10 1 5 6
M  V30 11 1 6 9
M  V30 12 1 6 13
M  V30 13 1 7 8
M  V30 14 1 7 9
M  V30 15 1 7 14
M  V30 16 1 9 15
M  V30 END BOND
M  V30 END CTAB
M  END
>  <ID>
822
$$$$
Structure_823
Score 	 6.0, smilesprid 	smiles	 smilestrue 	smiles	 similartanimoto 	0	 similardice 	0

   15   16  0  0  0  0            999 V3000
M  V30 BEGIN CTAB
M  V30 COUNTS 15 16 0 0 0
M  V30 BEGIN ATOM
M  V30 1 C -2.5391 -0.1953 0.0000 0
M  V30 2 C -1.7578 -1.3672 0.0000 0
M  V30 3 C -1.7578 0.9766 0.0000 0
M  V30 4 C -0.3906 -0.7812 0.0000 0
M  V30 5 C -0.3906 0.5859 0.0000 0
M  V30 6 C 0.7812 1.1719 0.0000 0
M  V30 7 C 1.9531 -0.7812 0.0000 0
M  V30 8 N 0.7812 -1.5625 0.0000 0
M  V30 9 N 1.9531 0.3906 0.0000 0
M  V30 10 H -3.5156 -0.1953 0.0000 0
M  V30 11 H -2.1484 2.1484 0.0000 0
M  V30 12 H -1.9531 -2.3438 0.0000 0
M  V30 13 H 0.9766 2.3438 0.0000 0
M  V30 14 H 2.9297 -1.3672 0.0000 0
M  V30 15 H 2.7344 0.9766 0.0000 0
M  V30 END ATOM
M  V30 BEGIN BOND
M  V30 1 1 1 2
M  V30 2 2 1 3
M  V30 3 1 1 10
M  V30 4 1 2 4
M  V30 5 1 2 12
M  V30 6 2 3 5
M  V30 7 1 3 11
M  V30 8 2 4 5
M  V30 9 2 4 8
M  V30 10 1 5 6
M  V30 11 1 6 9
M  V30 12 1 6 13
M  V30 13 1 7 8
M  V30 14 1 7 9
M  V30 15 1 7 14
M  V30 16 1 9 15
M  V30 END BOND
M  V30 END CTAB
M  END
>  <ID>
823
$$$$
Structure_824
Score 	 6.0, smilesprid 	smiles	 smilestrue 	smiles	 similartanimoto 	0	 similardice 	0

   15   16  0  0  0  0            999 V3000
M  V30 BEGIN CTAB
M  V30 COUNTS 15 16 0 0 0
M  V30 BEGIN ATOM
M  V30 1 C -2.5391 -0.1953 0.0000 0
M  V30 2 C -1.7578 -1.3672 0.0000 0
M  V30 3 C -1.7578 0.9766 0.0000 0
M  V30 4 C -0.3906 -0.7812 0.0000 0
M  V30 5 C -0.3906 0.5859 0.0000 0
M  V30 6 C 0.7812 1.1719 0.0000 0
M  V30 7 C 1.9531 -0.7812 0.0000 0
M  V30 8 N 0.7812 -1.5625 0.0000 0
M  V30 9 N 1.9531 0.3906 0.0000 0
M  V30 10 H -3.5156 -0.1953 0.0000 0
M  V30 11 H -2.1484 2.1484 0.0000 0
M  V30 12 H -1.9531 -2.3438 0.0000 0
M  V30 13 H 0.9766 2.3438 0.0000 0
M  V30 14 H 2.9297 -1.3672 0.0000 0
M  V30 15 H 2.7344 0.9766 0.0000 0
M  V30 END ATOM
M  V30 BEGIN BOND
M  V30 1 2 1 2
M  V30 2 2 1 3
M  V30 3 1 1 10
M  V30 4 1 2 4
M  V30 5 1 2 12
M  V30 6 2 3 5
M  V30 7 1 3 11
M  V30 8 2 4 5
M  V30 9 2 4 8
M  V30 10 1 5 6
M  V30 11 1 6 9
M  V30 12 1 6 13
M  V30 13 1 7 8
M  V30 14 1 7 9
M  V30 15 1 7 14
M  V30 16 1 9 15
M  V30 END BOND
M  V30 END CTAB
M  END
>  <ID>
824
$$$$
Structure_825
Score 	 8.0, smilesprid 	smiles	 smilestrue 	smiles	 similartanimoto 	0	 similardice 	0

   15   16  0  0  0  0            999 V3000
M  V30 BEGIN CTAB
M  V30 COUNTS 15 16 0 0 0
M  V30 BEGIN ATOM
M  V30 1 C -2.5391 -0.1953 0.0000 0
M  V30 2 C -1.7578 -1.3672 0.0000 0
M  V30 3 C -1.7578 0.9766 0.0000 0
M  V30 4 C -0.3906 -0.7812 0.0000 0
M  V30 5 C -0.3906 0.5859 0.0000 0
M  V30 6 C 0.7812 1.1719 0.0000 0
M  V30 7 C 1.9531 -0.7812 0.0000 0
M  V30 8 N 0.7812 -1.5625 0.0000 0
M  V30 9 N 1.9531 0.3906 0.0000 0
M  V30 10 H -3.5156 -0.1953 0.0000 0
M  V30 11 H -2.1484 2.1484 0.0000 0
M  V30 12 H -1.9531 -2.3438 0.0000 0
M  V30 13 H 0.9766 2.3438 0.0000 0
M  V30 14 H 2.9297 -1.3672 0.0000 0
M  V30 15 H 2.7344 0.9766 0.0000 0
M  V30 END ATOM
M  V30 BEGIN BOND
M  V30 1 3 1 2
M  V30 2 2 1 3
M  V30 3 1 1 10
M  V30 4 1 2 4
M  V30 5 1 2 12
M  V30 6 2 3 5
M  V30 7 1 3 11
M  V30 8 2 4 5
M  V30 9 2 4 8
M  V30 10 1 5 6
M  V30 11 1 6 9
M  V30 12 1 6 13
M  V30 13 1 7 8
M  V30 14 1 7 9
M  V30 15 1 7 14
M  V30 16 1 9 15
M  V30 END BOND
M  V30 END CTAB
M  END
>  <ID>
825
$$$$
Structure_826
Score 	 8.0, smilesprid 	smiles	 smilestrue 	smiles	 similartanimoto 	0	 similardice 	0

   15   16  0  0  0  0            999 V3000
M  V30 BEGIN CTAB
M  V30 COUNTS 15 16 0 0 0
M  V30 BEGIN ATOM
M  V30 1 C -2.5391 -0.1953 0.0000 0
M  V30 2 C -1.7578 -1.3672 0.0000 0
M  V30 3 C -1.7578 0.9766 0.0000 0
M  V30 4 C -0.3906 -0.7812 0.0000 0
M  V30 5 C -0.3906 0.5859 0.0000 0
M  V30 6 C 0.7812 1.1719 0.0000 0
M  V30 7 C 1.9531 -0.7812 0.0000 0
M  V30 8 N 0.7812 -1.5625 0.0000 0
M  V30 9 N 1.9531 0.3906 0.0000 0
M  V30 10 H -3.5156 -0.1953 0.0000 0
M  V30 11 H -2.1484 2.1484 0.0000 0
M  V30 12 H -1.9531 -2.3438 0.0000 0
M  V30 13 H 0.9766 2.3438 0.0000 0
M  V30 14 H 2.9297 -1.3672 0.0000 0
M  V30 15 H 2.7344 0.9766 0.0000 0
M  V30 END ATOM
M  V30 BEGIN BOND
M  V30 1 1 1 2
M  V30 2 3 1 3
M  V30 3 1 1 10
M  V30 4 1 2 4
M  V30 5 1 2 12
M  V30 6 2 3 5
M  V30 7 1 3 11
M  V30 8 2 4 5
M  V30 9 2 4 8
M  V30 10 1 5 6
M  V30 11 1 6 9
M  V30 12 1 6 13
M  V30 13 1 7 8
M  V30 14 1 7 9
M  V30 15 1 7 14
M  V30 16 1 9 15
M  V30 END BOND
M  V30 END CTAB
M  END
>  <ID>
826
$$$$
Structure_827
Score 	 8.0, smilesprid 	smiles	 smilestrue 	smiles	 similartanimoto 	0	 similardice 	0

   15   16  0  0  0  0            999 V3000
M  V30 BEGIN CTAB
M  V30 COUNTS 15 16 0 0 0
M  V30 BEGIN ATOM
M  V30 1 C -2.5391 -0.1953 0.0000 0
M  V30 2 C -1.7578 -1.3672 0.0000 0
M  V30 3 C -1.7578 0.9766 0.0000 0
M  V30 4 C -0.3906 -0.7812 0.0000 0
M  V30 5 C -0.3906 0.5859 0.0000 0
M  V30 6 C 0.7812 1.1719 0.0000 0
M  V30 7 C 1.9531 -0.7812 0.0000 0
M  V30 8 N 0.7812 -1.5625 0.0000 0
M  V30 9 N 1.9531 0.3906 0.0000 0
M  V30 10 H -3.5156 -0.1953 0.0000 0
M  V30 11 H -2.1484 2.1484 0.0000 0
M  V30 12 H -1.9531 -2.3438 0.0000 0
M  V30 13 H 0.9766 2.3438 0.0000 0
M  V30 14 H 2.9297 -1.3672 0.0000 0
M  V30 15 H 2.7344 0.9766 0.0000 0
M  V30 END ATOM
M  V30 BEGIN BOND
M  V30 1 2 1 2
M  V30 2 3 1 3
M  V30 3 1 1 10
M  V30 4 1 2 4
M  V30 5 1 2 12
M  V30 6 2 3 5
M  V30 7 1 3 11
M  V30 8 2 4 5
M  V30 9 2 4 8
M  V30 10 1 5 6
M  V30 11 1 6 9
M  V30 12 1 6 13
M  V30 13 1 7 8
M  V30 14 1 7 9
M  V30 15 1 7 14
M  V30 16 1 9 15
M  V30 END BOND
M  V30 END CTAB
M  END
>  <ID>
827
$$$$
Structure_828
Score 	 10.0, smilesprid 	smiles	 smilestrue 	smiles	 similartanimoto 	0	 similardice 	0

   15   16  0  0  0  0            999 V3000
M  V30 BEGIN CTAB
M  V30 COUNTS 15 16 0 0 0
M  V30 BEGIN ATOM
M  V30 1 C -2.5391 -0.1953 0.0000 0
M  V30 2 C -1.7578 -1.3672 0.0000 0
M  V30 3 C -1.7578 0.9766 0.0000 0
M  V30 4 C -0.3906 -0.7812 0.0000 0
M  V30 5 C -0.3906 0.5859 0.0000 0
M  V30 6 C 0.7812 1.1719 0.0000 0
M  V30 7 C 1.9531 -0.7812 0.0000 0
M  V30 8 N 0.7812 -1.5625 0.0000 0
M  V30 9 N 1.9531 0.3906 0.0000 0
M  V30 10 H -3.5156 -0.1953 0.0000 0
M  V30 11 H -2.1484 2.1484 0.0000 0
M  V30 12 H -1.9531 -2.3438 0.0000 0
M  V30 13 H 0.9766 2.3438 0.0000 0
M  V30 14 H 2.9297 -1.3672 0.0000 0
M  V30 15 H 2.7344 0.9766 0.0000 0
M  V30 END ATOM
M  V30 BEGIN BOND
M  V30 1 3 1 2
M  V30 2 3 1 3
M  V30 3 1 1 10
M  V30 4 1 2 4
M  V30 5 1 2 12
M  V30 6 2 3 5
M  V30 7 1 3 11
M  V30 8 2 4 5
M  V30 9 2 4 8
M  V30 10 1 5 6
M  V30 11 1 6 9
M  V30 12 1 6 13
M  V30 13 1 7 8
M  V30 14 1 7 9
M  V30 15 1 7 14
M  V30 16 1 9 15
M  V30 END BOND
M  V30 END CTAB
M  END
>  <ID>
828
$$$$
Structure_829
Score 	 8.0, smilesprid 	smiles	 smilestrue 	smiles	 similartanimoto 	0	 similardice 	0

   15   16  0  0  0  0            999 V3000
M  V30 BEGIN CTAB
M  V30 COUNTS 15 16 0 0 0
M  V30 BEGIN ATOM
M  V30 1 C -2.5391 -0.1953 0.0000 0
M  V30 2 C -1.7578 -1.3672 0.0000 0
M  V30 3 C -1.7578 0.9766 0.0000 0
M  V30 4 C -0.3906 -0.7812 0.0000 0
M  V30 5 C -0.3906 0.5859 0.0000 0
M  V30 6 C 0.7812 1.1719 0.0000 0
M  V30 7 C 1.9531 -0.7812 0.0000 0
M  V30 8 N 0.7812 -1.5625 0.0000 0
M  V30 9 N 1.9531 0.3906 0.0000 0
M  V30 10 H -3.5156 -0.1953 0.0000 0
M  V30 11 H -2.1484 2.1484 0.0000 0
M  V30 12 H -1.9531 -2.3438 0.0000 0
M  V30 13 H 0.9766 2.3438 0.0000 0
M  V30 14 H 2.9297 -1.3672 0.0000 0
M  V30 15 H 2.7344 0.9766 0.0000 0
M  V30 END ATOM
M  V30 BEGIN BOND
M  V30 1 1 1 2
M  V30 2 1 1 3
M  V30 3 1 1 10
M  V30 4 1 2 4
M  V30 5 1 2 12
M  V30 6 3 3 5
M  V30 7 1 3 11
M  V30 8 2 4 5
M  V30 9 2 4 8
M  V30 10 1 5 6
M  V30 11 1 6 9
M  V30 12 1 6 13
M  V30 13 1 7 8
M  V30 14 1 7 9
M  V30 15 1 7 14
M  V30 16 1 9 15
M  V30 END BOND
M  V30 END CTAB
M  END
>  <ID>
829
$$$$
Structure_830
Score 	 6.0, smilesprid 	smiles	 smilestrue 	smiles	 similartanimoto 	0	 similardice 	0

   15   16  0  0  0  0            999 V3000
M  V30 BEGIN CTAB
M  V30 COUNTS 15 16 0 0 0
M  V30 BEGIN ATOM
M  V30 1 C -2.5391 -0.1953 0.0000 0
M  V30 2 C -1.7578 -1.3672 0.0000 0
M  V30 3 C -1.7578 0.9766 0.0000 0
M  V30 4 C -0.3906 -0.7812 0.0000 0
M  V30 5 C -0.3906 0.5859 0.0000 0
M  V30 6 C 0.7812 1.1719 0.0000 0
M  V30 7 C 1.9531 -0.7812 0.0000 0
M  V30 8 N 0.7812 -1.5625 0.0000 0
M  V30 9 N 1.9531 0.3906 0.0000 0
M  V30 10 H -3.5156 -0.1953 0.0000 0
M  V30 11 H -2.1484 2.1484 0.0000 0
M  V30 12 H -1.9531 -2.3438 0.0000 0
M  V30 13 H 0.9766 2.3438 0.0000 0
M  V30 14 H 2.9297 -1.3672 0.0000 0
M  V30 15 H 2.7344 0.9766 0.0000 0
M  V30 END ATOM
M  V30 BEGIN BOND
M  V30 1 2 1 2
M  V30 2 1 1 3
M  V30 3 1 1 10
M  V30 4 1 2 4
M  V30 5 1 2 12
M  V30 6 3 3 5
M  V30 7 1 3 11
M  V30 8 2 4 5
M  V30 9 2 4 8
M  V30 10 1 5 6
M  V30 11 1 6 9
M  V30 12 1 6 13
M  V30 13 1 7 8
M  V30 14 1 7 9
M  V30 15 1 7 14
M  V30 16 1 9 15
M  V30 END BOND
M  V30 END CTAB
M  END
>  <ID>
830
$$$$
Structure_831
Score 	 8.0, smilesprid 	smiles	 smilestrue 	smiles	 similartanimoto 	0	 similardice 	0

   15   16  0  0  0  0            999 V3000
M  V30 BEGIN CTAB
M  V30 COUNTS 15 16 0 0 0
M  V30 BEGIN ATOM
M  V30 1 C -2.5391 -0.1953 0.0000 0
M  V30 2 C -1.7578 -1.3672 0.0000 0
M  V30 3 C -1.7578 0.9766 0.0000 0
M  V30 4 C -0.3906 -0.7812 0.0000 0
M  V30 5 C -0.3906 0.5859 0.0000 0
M  V30 6 C 0.7812 1.1719 0.0000 0
M  V30 7 C 1.9531 -0.7812 0.0000 0
M  V30 8 N 0.7812 -1.5625 0.0000 0
M  V30 9 N 1.9531 0.3906 0.0000 0
M  V30 10 H -3.5156 -0.1953 0.0000 0
M  V30 11 H -2.1484 2.1484 0.0000 0
M  V30 12 H -1.9531 -2.3438 0.0000 0
M  V30 13 H 0.9766 2.3438 0.0000 0
M  V30 14 H 2.9297 -1.3672 0.0000 0
M  V30 15 H 2.7344 0.9766 0.0000 0
M  V30 END ATOM
M  V30 BEGIN BOND
M  V30 1 3 1 2
M  V30 2 1 1 3
M  V30 3 1 1 10
M  V30 4 1 2 4
M  V30 5 1 2 12
M  V30 6 3 3 5
M  V30 7 1 3 11
M  V30 8 2 4 5
M  V30 9 2 4 8
M  V30 10 1 5 6
M  V30 11 1 6 9
M  V30 12 1 6 13
M  V30 13 1 7 8
M  V30 14 1 7 9
M  V30 15 1 7 14
M  V30 16 1 9 15
M  V30 END BOND
M  V30 END CTAB
M  END
>  <ID>
831
$$$$
Structure_832
Score 	 8.0, smilesprid 	smiles	 smilestrue 	smiles	 similartanimoto 	0	 similardice 	0

   15   16  0  0  0  0            999 V3000
M  V30 BEGIN CTAB
M  V30 COUNTS 15 16 0 0 0
M  V30 BEGIN ATOM
M  V30 1 C -2.5391 -0.1953 0.0000 0
M  V30 2 C -1.7578 -1.3672 0.0000 0
M  V30 3 C -1.7578 0.9766 0.0000 0
M  V30 4 C -0.3906 -0.7812 0.0000 0
M  V30 5 C -0.3906 0.5859 0.0000 0
M  V30 6 C 0.7812 1.1719 0.0000 0
M  V30 7 C 1.9531 -0.7812 0.0000 0
M  V30 8 N 0.7812 -1.5625 0.0000 0
M  V30 9 N 1.9531 0.3906 0.0000 0
M  V30 10 H -3.5156 -0.1953 0.0000 0
M  V30 11 H -2.1484 2.1484 0.0000 0
M  V30 12 H -1.9531 -2.3438 0.0000 0
M  V30 13 H 0.9766 2.3438 0.0000 0
M  V30 14 H 2.9297 -1.3672 0.0000 0
M  V30 15 H 2.7344 0.9766 0.0000 0
M  V30 END ATOM
M  V30 BEGIN BOND
M  V30 1 1 1 2
M  V30 2 2 1 3
M  V30 3 1 1 10
M  V30 4 1 2 4
M  V30 5 1 2 12
M  V30 6 3 3 5
M  V30 7 1 3 11
M  V30 8 2 4 5
M  V30 9 2 4 8
M  V30 10 1 5 6
M  V30 11 1 6 9
M  V30 12 1 6 13
M  V30 13 1 7 8
M  V30 14 1 7 9
M  V30 15 1 7 14
M  V30 16 1 9 15
M  V30 END BOND
M  V30 END CTAB
M  END
>  <ID>
832
$$$$
Structure_833
Score 	 8.0, smilesprid 	smiles	 smilestrue 	smiles	 similartanimoto 	0	 similardice 	0

   15   16  0  0  0  0            999 V3000
M  V30 BEGIN CTAB
M  V30 COUNTS 15 16 0 0 0
M  V30 BEGIN ATOM
M  V30 1 C -2.5391 -0.1953 0.0000 0
M  V30 2 C -1.7578 -1.3672 0.0000 0
M  V30 3 C -1.7578 0.9766 0.0000 0
M  V30 4 C -0.3906 -0.7812 0.0000 0
M  V30 5 C -0.3906 0.5859 0.0000 0
M  V30 6 C 0.7812 1.1719 0.0000 0
M  V30 7 C 1.9531 -0.7812 0.0000 0
M  V30 8 N 0.7812 -1.5625 0.0000 0
M  V30 9 N 1.9531 0.3906 0.0000 0
M  V30 10 H -3.5156 -0.1953 0.0000 0
M  V30 11 H -2.1484 2.1484 0.0000 0
M  V30 12 H -1.9531 -2.3438 0.0000 0
M  V30 13 H 0.9766 2.3438 0.0000 0
M  V30 14 H 2.9297 -1.3672 0.0000 0
M  V30 15 H 2.7344 0.9766 0.0000 0
M  V30 END ATOM
M  V30 BEGIN BOND
M  V30 1 2 1 2
M  V30 2 2 1 3
M  V30 3 1 1 10
M  V30 4 1 2 4
M  V30 5 1 2 12
M  V30 6 3 3 5
M  V30 7 1 3 11
M  V30 8 2 4 5
M  V30 9 2 4 8
M  V30 10 1 5 6
M  V30 11 1 6 9
M  V30 12 1 6 13
M  V30 13 1 7 8
M  V30 14 1 7 9
M  V30 15 1 7 14
M  V30 16 1 9 15
M  V30 END BOND
M  V30 END CTAB
M  END
>  <ID>
833
$$$$
Structure_834
Score 	 10.0, smilesprid 	smiles	 smilestrue 	smiles	 similartanimoto 	0	 similardice 	0

   15   16  0  0  0  0            999 V3000
M  V30 BEGIN CTAB
M  V30 COUNTS 15 16 0 0 0
M  V30 BEGIN ATOM
M  V30 1 C -2.5391 -0.1953 0.0000 0
M  V30 2 C -1.7578 -1.3672 0.0000 0
M  V30 3 C -1.7578 0.9766 0.0000 0
M  V30 4 C -0.3906 -0.7812 0.0000 0
M  V30 5 C -0.3906 0.5859 0.0000 0
M  V30 6 C 0.7812 1.1719 0.0000 0
M  V30 7 C 1.9531 -0.7812 0.0000 0
M  V30 8 N 0.7812 -1.5625 0.0000 0
M  V30 9 N 1.9531 0.3906 0.0000 0
M  V30 10 H -3.5156 -0.1953 0.0000 0
M  V30 11 H -2.1484 2.1484 0.0000 0
M  V30 12 H -1.9531 -2.3438 0.0000 0
M  V30 13 H 0.9766 2.3438 0.0000 0
M  V30 14 H 2.9297 -1.3672 0.0000 0
M  V30 15 H 2.7344 0.9766 0.0000 0
M  V30 END ATOM
M  V30 BEGIN BOND
M  V30 1 3 1 2
M  V30 2 2 1 3
M  V30 3 1 1 10
M  V30 4 1 2 4
M  V30 5 1 2 12
M  V30 6 3 3 5
M  V30 7 1 3 11
M  V30 8 2 4 5
M  V30 9 2 4 8
M  V30 10 1 5 6
M  V30 11 1 6 9
M  V30 12 1 6 13
M  V30 13 1 7 8
M  V30 14 1 7 9
M  V30 15 1 7 14
M  V30 16 1 9 15
M  V30 END BOND
M  V30 END CTAB
M  END
>  <ID>
834
$$$$
Structure_835
Score 	 10.0, smilesprid 	smiles	 smilestrue 	smiles	 similartanimoto 	0	 similardice 	0

   15   16  0  0  0  0            999 V3000
M  V30 BEGIN CTAB
M  V30 COUNTS 15 16 0 0 0
M  V30 BEGIN ATOM
M  V30 1 C -2.5391 -0.1953 0.0000 0
M  V30 2 C -1.7578 -1.3672 0.0000 0
M  V30 3 C -1.7578 0.9766 0.0000 0
M  V30 4 C -0.3906 -0.7812 0.0000 0
M  V30 5 C -0.3906 0.5859 0.0000 0
M  V30 6 C 0.7812 1.1719 0.0000 0
M  V30 7 C 1.9531 -0.7812 0.0000 0
M  V30 8 N 0.7812 -1.5625 0.0000 0
M  V30 9 N 1.9531 0.3906 0.0000 0
M  V30 10 H -3.5156 -0.1953 0.0000 0
M  V30 11 H -2.1484 2.1484 0.0000 0
M  V30 12 H -1.9531 -2.3438 0.0000 0
M  V30 13 H 0.9766 2.3438 0.0000 0
M  V30 14 H 2.9297 -1.3672 0.0000 0
M  V30 15 H 2.7344 0.9766 0.0000 0
M  V30 END ATOM
M  V30 BEGIN BOND
M  V30 1 1 1 2
M  V30 2 3 1 3
M  V30 3 1 1 10
M  V30 4 1 2 4
M  V30 5 1 2 12
M  V30 6 3 3 5
M  V30 7 1 3 11
M  V30 8 2 4 5
M  V30 9 2 4 8
M  V30 10 1 5 6
M  V30 11 1 6 9
M  V30 12 1 6 13
M  V30 13 1 7 8
M  V30 14 1 7 9
M  V30 15 1 7 14
M  V30 16 1 9 15
M  V30 END BOND
M  V30 END CTAB
M  END
>  <ID>
835
$$$$
Structure_836
Score 	 10.0, smilesprid 	smiles	 smilestrue 	smiles	 similartanimoto 	0	 similardice 	0

   15   16  0  0  0  0            999 V3000
M  V30 BEGIN CTAB
M  V30 COUNTS 15 16 0 0 0
M  V30 BEGIN ATOM
M  V30 1 C -2.5391 -0.1953 0.0000 0
M  V30 2 C -1.7578 -1.3672 0.0000 0
M  V30 3 C -1.7578 0.9766 0.0000 0
M  V30 4 C -0.3906 -0.7812 0.0000 0
M  V30 5 C -0.3906 0.5859 0.0000 0
M  V30 6 C 0.7812 1.1719 0.0000 0
M  V30 7 C 1.9531 -0.7812 0.0000 0
M  V30 8 N 0.7812 -1.5625 0.0000 0
M  V30 9 N 1.9531 0.3906 0.0000 0
M  V30 10 H -3.5156 -0.1953 0.0000 0
M  V30 11 H -2.1484 2.1484 0.0000 0
M  V30 12 H -1.9531 -2.3438 0.0000 0
M  V30 13 H 0.9766 2.3438 0.0000 0
M  V30 14 H 2.9297 -1.3672 0.0000 0
M  V30 15 H 2.7344 0.9766 0.0000 0
M  V30 END ATOM
M  V30 BEGIN BOND
M  V30 1 2 1 2
M  V30 2 3 1 3
M  V30 3 1 1 10
M  V30 4 1 2 4
M  V30 5 1 2 12
M  V30 6 3 3 5
M  V30 7 1 3 11
M  V30 8 2 4 5
M  V30 9 2 4 8
M  V30 10 1 5 6
M  V30 11 1 6 9
M  V30 12 1 6 13
M  V30 13 1 7 8
M  V30 14 1 7 9
M  V30 15 1 7 14
M  V30 16 1 9 15
M  V30 END BOND
M  V30 END CTAB
M  END
>  <ID>
836
$$$$
Structure_837
Score 	 12.0, smilesprid 	smiles	 smilestrue 	smiles	 similartanimoto 	0	 similardice 	0

   15   16  0  0  0  0            999 V3000
M  V30 BEGIN CTAB
M  V30 COUNTS 15 16 0 0 0
M  V30 BEGIN ATOM
M  V30 1 C -2.5391 -0.1953 0.0000 0
M  V30 2 C -1.7578 -1.3672 0.0000 0
M  V30 3 C -1.7578 0.9766 0.0000 0
M  V30 4 C -0.3906 -0.7812 0.0000 0
M  V30 5 C -0.3906 0.5859 0.0000 0
M  V30 6 C 0.7812 1.1719 0.0000 0
M  V30 7 C 1.9531 -0.7812 0.0000 0
M  V30 8 N 0.7812 -1.5625 0.0000 0
M  V30 9 N 1.9531 0.3906 0.0000 0
M  V30 10 H -3.5156 -0.1953 0.0000 0
M  V30 11 H -2.1484 2.1484 0.0000 0
M  V30 12 H -1.9531 -2.3438 0.0000 0
M  V30 13 H 0.9766 2.3438 0.0000 0
M  V30 14 H 2.9297 -1.3672 0.0000 0
M  V30 15 H 2.7344 0.9766 0.0000 0
M  V30 END ATOM
M  V30 BEGIN BOND
M  V30 1 3 1 2
M  V30 2 3 1 3
M  V30 3 1 1 10
M  V30 4 1 2 4
M  V30 5 1 2 12
M  V30 6 3 3 5
M  V30 7 1 3 11
M  V30 8 2 4 5
M  V30 9 2 4 8
M  V30 10 1 5 6
M  V30 11 1 6 9
M  V30 12 1 6 13
M  V30 13 1 7 8
M  V30 14 1 7 9
M  V30 15 1 7 14
M  V30 16 1 9 15
M  V30 END BOND
M  V30 END CTAB
M  END
>  <ID>
837
$$$$
Structure_838
Score 	 6.0, smilesprid 	smiles	 smilestrue 	smiles	 similartanimoto 	0	 similardice 	0

   15   16  0  0  0  0            999 V3000
M  V30 BEGIN CTAB
M  V30 COUNTS 15 16 0 0 0
M  V30 BEGIN ATOM
M  V30 1 C -2.5391 -0.1953 0.0000 0
M  V30 2 C -1.7578 -1.3672 0.0000 0
M  V30 3 C -1.7578 0.9766 0.0000 0
M  V30 4 C -0.3906 -0.7812 0.0000 0
M  V30 5 C -0.3906 0.5859 0.0000 0
M  V30 6 C 0.7812 1.1719 0.0000 0
M  V30 7 C 1.9531 -0.7812 0.0000 0
M  V30 8 N 0.7812 -1.5625 0.0000 0
M  V30 9 N 1.9531 0.3906 0.0000 0
M  V30 10 H -3.5156 -0.1953 0.0000 0
M  V30 11 H -2.1484 2.1484 0.0000 0
M  V30 12 H -1.9531 -2.3438 0.0000 0
M  V30 13 H 0.9766 2.3438 0.0000 0
M  V30 14 H 2.9297 -1.3672 0.0000 0
M  V30 15 H 2.7344 0.9766 0.0000 0
M  V30 END ATOM
M  V30 BEGIN BOND
M  V30 1 1 1 2
M  V30 2 1 1 3
M  V30 3 1 1 10
M  V30 4 2 2 4
M  V30 5 1 2 12
M  V30 6 1 3 5
M  V30 7 1 3 11
M  V30 8 2 4 5
M  V30 9 2 4 8
M  V30 10 1 5 6
M  V30 11 1 6 9
M  V30 12 1 6 13
M  V30 13 1 7 8
M  V30 14 1 7 9
M  V30 15 1 7 14
M  V30 16 1 9 15
M  V30 END BOND
M  V30 END CTAB
M  END
>  <ID>
838
$$$$
Structure_839
Score 	 6.0, smilesprid 	smiles	 smilestrue 	smiles	 similartanimoto 	0	 similardice 	0

   15   16  0  0  0  0            999 V3000
M  V30 BEGIN CTAB
M  V30 COUNTS 15 16 0 0 0
M  V30 BEGIN ATOM
M  V30 1 C -2.5391 -0.1953 0.0000 0
M  V30 2 C -1.7578 -1.3672 0.0000 0
M  V30 3 C -1.7578 0.9766 0.0000 0
M  V30 4 C -0.3906 -0.7812 0.0000 0
M  V30 5 C -0.3906 0.5859 0.0000 0
M  V30 6 C 0.7812 1.1719 0.0000 0
M  V30 7 C 1.9531 -0.7812 0.0000 0
M  V30 8 N 0.7812 -1.5625 0.0000 0
M  V30 9 N 1.9531 0.3906 0.0000 0
M  V30 10 H -3.5156 -0.1953 0.0000 0
M  V30 11 H -2.1484 2.1484 0.0000 0
M  V30 12 H -1.9531 -2.3438 0.0000 0
M  V30 13 H 0.9766 2.3438 0.0000 0
M  V30 14 H 2.9297 -1.3672 0.0000 0
M  V30 15 H 2.7344 0.9766 0.0000 0
M  V30 END ATOM
M  V30 BEGIN BOND
M  V30 1 2 1 2
M  V30 2 1 1 3
M  V30 3 1 1 10
M  V30 4 2 2 4
M  V30 5 1 2 12
M  V30 6 1 3 5
M  V30 7 1 3 11
M  V30 8 2 4 5
M  V30 9 2 4 8
M  V30 10 1 5 6
M  V30 11 1 6 9
M  V30 12 1 6 13
M  V30 13 1 7 8
M  V30 14 1 7 9
M  V30 15 1 7 14
M  V30 16 1 9 15
M  V30 END BOND
M  V30 END CTAB
M  END
>  <ID>
839
$$$$
Structure_840
Score 	 8.0, smilesprid 	smiles	 smilestrue 	smiles	 similartanimoto 	0	 similardice 	0

   15   16  0  0  0  0            999 V3000
M  V30 BEGIN CTAB
M  V30 COUNTS 15 16 0 0 0
M  V30 BEGIN ATOM
M  V30 1 C -2.5391 -0.1953 0.0000 0
M  V30 2 C -1.7578 -1.3672 0.0000 0
M  V30 3 C -1.7578 0.9766 0.0000 0
M  V30 4 C -0.3906 -0.7812 0.0000 0
M  V30 5 C -0.3906 0.5859 0.0000 0
M  V30 6 C 0.7812 1.1719 0.0000 0
M  V30 7 C 1.9531 -0.7812 0.0000 0
M  V30 8 N 0.7812 -1.5625 0.0000 0
M  V30 9 N 1.9531 0.3906 0.0000 0
M  V30 10 H -3.5156 -0.1953 0.0000 0
M  V30 11 H -2.1484 2.1484 0.0000 0
M  V30 12 H -1.9531 -2.3438 0.0000 0
M  V30 13 H 0.9766 2.3438 0.0000 0
M  V30 14 H 2.9297 -1.3672 0.0000 0
M  V30 15 H 2.7344 0.9766 0.0000 0
M  V30 END ATOM
M  V30 BEGIN BOND
M  V30 1 3 1 2
M  V30 2 1 1 3
M  V30 3 1 1 10
M  V30 4 2 2 4
M  V30 5 1 2 12
M  V30 6 1 3 5
M  V30 7 1 3 11
M  V30 8 2 4 5
M  V30 9 2 4 8
M  V30 10 1 5 6
M  V30 11 1 6 9
M  V30 12 1 6 13
M  V30 13 1 7 8
M  V30 14 1 7 9
M  V30 15 1 7 14
M  V30 16 1 9 15
M  V30 END BOND
M  V30 END CTAB
M  END
>  <ID>
840
$$$$
Structure_841
Score 	 4.0, smilesprid 	smiles	 smilestrue 	smiles	 similartanimoto 	0	 similardice 	0

   15   16  0  0  0  0            999 V3000
M  V30 BEGIN CTAB
M  V30 COUNTS 15 16 0 0 0
M  V30 BEGIN ATOM
M  V30 1 C -2.5391 -0.1953 0.0000 0
M  V30 2 C -1.7578 -1.3672 0.0000 0
M  V30 3 C -1.7578 0.9766 0.0000 0
M  V30 4 C -0.3906 -0.7812 0.0000 0
M  V30 5 C -0.3906 0.5859 0.0000 0
M  V30 6 C 0.7812 1.1719 0.0000 0
M  V30 7 C 1.9531 -0.7812 0.0000 0
M  V30 8 N 0.7812 -1.5625 0.0000 0
M  V30 9 N 1.9531 0.3906 0.0000 0
M  V30 10 H -3.5156 -0.1953 0.0000 0
M  V30 11 H -2.1484 2.1484 0.0000 0
M  V30 12 H -1.9531 -2.3438 0.0000 0
M  V30 13 H 0.9766 2.3438 0.0000 0
M  V30 14 H 2.9297 -1.3672 0.0000 0
M  V30 15 H 2.7344 0.9766 0.0000 0
M  V30 END ATOM
M  V30 BEGIN BOND
M  V30 1 1 1 2
M  V30 2 2 1 3
M  V30 3 1 1 10
M  V30 4 2 2 4
M  V30 5 1 2 12
M  V30 6 1 3 5
M  V30 7 1 3 11
M  V30 8 2 4 5
M  V30 9 2 4 8
M  V30 10 1 5 6
M  V30 11 1 6 9
M  V30 12 1 6 13
M  V30 13 1 7 8
M  V30 14 1 7 9
M  V30 15 1 7 14
M  V30 16 1 9 15
M  V30 END BOND
M  V30 END CTAB
M  END
>  <ID>
841
$$$$
Structure_842
Score 	 6.0, smilesprid 	smiles	 smilestrue 	smiles	 similartanimoto 	0	 similardice 	0

   15   16  0  0  0  0            999 V3000
M  V30 BEGIN CTAB
M  V30 COUNTS 15 16 0 0 0
M  V30 BEGIN ATOM
M  V30 1 C -2.5391 -0.1953 0.0000 0
M  V30 2 C -1.7578 -1.3672 0.0000 0
M  V30 3 C -1.7578 0.9766 0.0000 0
M  V30 4 C -0.3906 -0.7812 0.0000 0
M  V30 5 C -0.3906 0.5859 0.0000 0
M  V30 6 C 0.7812 1.1719 0.0000 0
M  V30 7 C 1.9531 -0.7812 0.0000 0
M  V30 8 N 0.7812 -1.5625 0.0000 0
M  V30 9 N 1.9531 0.3906 0.0000 0
M  V30 10 H -3.5156 -0.1953 0.0000 0
M  V30 11 H -2.1484 2.1484 0.0000 0
M  V30 12 H -1.9531 -2.3438 0.0000 0
M  V30 13 H 0.9766 2.3438 0.0000 0
M  V30 14 H 2.9297 -1.3672 0.0000 0
M  V30 15 H 2.7344 0.9766 0.0000 0
M  V30 END ATOM
M  V30 BEGIN BOND
M  V30 1 2 1 2
M  V30 2 2 1 3
M  V30 3 1 1 10
M  V30 4 2 2 4
M  V30 5 1 2 12
M  V30 6 1 3 5
M  V30 7 1 3 11
M  V30 8 2 4 5
M  V30 9 2 4 8
M  V30 10 1 5 6
M  V30 11 1 6 9
M  V30 12 1 6 13
M  V30 13 1 7 8
M  V30 14 1 7 9
M  V30 15 1 7 14
M  V30 16 1 9 15
M  V30 END BOND
M  V30 END CTAB
M  END
>  <ID>
842
$$$$
Structure_843
Score 	 8.0, smilesprid 	smiles	 smilestrue 	smiles	 similartanimoto 	0	 similardice 	0

   15   16  0  0  0  0            999 V3000
M  V30 BEGIN CTAB
M  V30 COUNTS 15 16 0 0 0
M  V30 BEGIN ATOM
M  V30 1 C -2.5391 -0.1953 0.0000 0
M  V30 2 C -1.7578 -1.3672 0.0000 0
M  V30 3 C -1.7578 0.9766 0.0000 0
M  V30 4 C -0.3906 -0.7812 0.0000 0
M  V30 5 C -0.3906 0.5859 0.0000 0
M  V30 6 C 0.7812 1.1719 0.0000 0
M  V30 7 C 1.9531 -0.7812 0.0000 0
M  V30 8 N 0.7812 -1.5625 0.0000 0
M  V30 9 N 1.9531 0.3906 0.0000 0
M  V30 10 H -3.5156 -0.1953 0.0000 0
M  V30 11 H -2.1484 2.1484 0.0000 0
M  V30 12 H -1.9531 -2.3438 0.0000 0
M  V30 13 H 0.9766 2.3438 0.0000 0
M  V30 14 H 2.9297 -1.3672 0.0000 0
M  V30 15 H 2.7344 0.9766 0.0000 0
M  V30 END ATOM
M  V30 BEGIN BOND
M  V30 1 3 1 2
M  V30 2 2 1 3
M  V30 3 1 1 10
M  V30 4 2 2 4
M  V30 5 1 2 12
M  V30 6 1 3 5
M  V30 7 1 3 11
M  V30 8 2 4 5
M  V30 9 2 4 8
M  V30 10 1 5 6
M  V30 11 1 6 9
M  V30 12 1 6 13
M  V30 13 1 7 8
M  V30 14 1 7 9
M  V30 15 1 7 14
M  V30 16 1 9 15
M  V30 END BOND
M  V30 END CTAB
M  END
>  <ID>
843
$$$$
Structure_844
Score 	 6.0, smilesprid 	smiles	 smilestrue 	smiles	 similartanimoto 	0	 similardice 	0

   15   16  0  0  0  0            999 V3000
M  V30 BEGIN CTAB
M  V30 COUNTS 15 16 0 0 0
M  V30 BEGIN ATOM
M  V30 1 C -2.5391 -0.1953 0.0000 0
M  V30 2 C -1.7578 -1.3672 0.0000 0
M  V30 3 C -1.7578 0.9766 0.0000 0
M  V30 4 C -0.3906 -0.7812 0.0000 0
M  V30 5 C -0.3906 0.5859 0.0000 0
M  V30 6 C 0.7812 1.1719 0.0000 0
M  V30 7 C 1.9531 -0.7812 0.0000 0
M  V30 8 N 0.7812 -1.5625 0.0000 0
M  V30 9 N 1.9531 0.3906 0.0000 0
M  V30 10 H -3.5156 -0.1953 0.0000 0
M  V30 11 H -2.1484 2.1484 0.0000 0
M  V30 12 H -1.9531 -2.3438 0.0000 0
M  V30 13 H 0.9766 2.3438 0.0000 0
M  V30 14 H 2.9297 -1.3672 0.0000 0
M  V30 15 H 2.7344 0.9766 0.0000 0
M  V30 END ATOM
M  V30 BEGIN BOND
M  V30 1 1 1 2
M  V30 2 3 1 3
M  V30 3 1 1 10
M  V30 4 2 2 4
M  V30 5 1 2 12
M  V30 6 1 3 5
M  V30 7 1 3 11
M  V30 8 2 4 5
M  V30 9 2 4 8
M  V30 10 1 5 6
M  V30 11 1 6 9
M  V30 12 1 6 13
M  V30 13 1 7 8
M  V30 14 1 7 9
M  V30 15 1 7 14
M  V30 16 1 9 15
M  V30 END BOND
M  V30 END CTAB
M  END
>  <ID>
844
$$$$
Structure_845
Score 	 8.0, smilesprid 	smiles	 smilestrue 	smiles	 similartanimoto 	0	 similardice 	0

   15   16  0  0  0  0            999 V3000
M  V30 BEGIN CTAB
M  V30 COUNTS 15 16 0 0 0
M  V30 BEGIN ATOM
M  V30 1 C -2.5391 -0.1953 0.0000 0
M  V30 2 C -1.7578 -1.3672 0.0000 0
M  V30 3 C -1.7578 0.9766 0.0000 0
M  V30 4 C -0.3906 -0.7812 0.0000 0
M  V30 5 C -0.3906 0.5859 0.0000 0
M  V30 6 C 0.7812 1.1719 0.0000 0
M  V30 7 C 1.9531 -0.7812 0.0000 0
M  V30 8 N 0.7812 -1.5625 0.0000 0
M  V30 9 N 1.9531 0.3906 0.0000 0
M  V30 10 H -3.5156 -0.1953 0.0000 0
M  V30 11 H -2.1484 2.1484 0.0000 0
M  V30 12 H -1.9531 -2.3438 0.0000 0
M  V30 13 H 0.9766 2.3438 0.0000 0
M  V30 14 H 2.9297 -1.3672 0.0000 0
M  V30 15 H 2.7344 0.9766 0.0000 0
M  V30 END ATOM
M  V30 BEGIN BOND
M  V30 1 2 1 2
M  V30 2 3 1 3
M  V30 3 1 1 10
M  V30 4 2 2 4
M  V30 5 1 2 12
M  V30 6 1 3 5
M  V30 7 1 3 11
M  V30 8 2 4 5
M  V30 9 2 4 8
M  V30 10 1 5 6
M  V30 11 1 6 9
M  V30 12 1 6 13
M  V30 13 1 7 8
M  V30 14 1 7 9
M  V30 15 1 7 14
M  V30 16 1 9 15
M  V30 END BOND
M  V30 END CTAB
M  END
>  <ID>
845
$$$$
Structure_846
Score 	 10.0, smilesprid 	smiles	 smilestrue 	smiles	 similartanimoto 	0	 similardice 	0

   15   16  0  0  0  0            999 V3000
M  V30 BEGIN CTAB
M  V30 COUNTS 15 16 0 0 0
M  V30 BEGIN ATOM
M  V30 1 C -2.5391 -0.1953 0.0000 0
M  V30 2 C -1.7578 -1.3672 0.0000 0
M  V30 3 C -1.7578 0.9766 0.0000 0
M  V30 4 C -0.3906 -0.7812 0.0000 0
M  V30 5 C -0.3906 0.5859 0.0000 0
M  V30 6 C 0.7812 1.1719 0.0000 0
M  V30 7 C 1.9531 -0.7812 0.0000 0
M  V30 8 N 0.7812 -1.5625 0.0000 0
M  V30 9 N 1.9531 0.3906 0.0000 0
M  V30 10 H -3.5156 -0.1953 0.0000 0
M  V30 11 H -2.1484 2.1484 0.0000 0
M  V30 12 H -1.9531 -2.3438 0.0000 0
M  V30 13 H 0.9766 2.3438 0.0000 0
M  V30 14 H 2.9297 -1.3672 0.0000 0
M  V30 15 H 2.7344 0.9766 0.0000 0
M  V30 END ATOM
M  V30 BEGIN BOND
M  V30 1 3 1 2
M  V30 2 3 1 3
M  V30 3 1 1 10
M  V30 4 2 2 4
M  V30 5 1 2 12
M  V30 6 1 3 5
M  V30 7 1 3 11
M  V30 8 2 4 5
M  V30 9 2 4 8
M  V30 10 1 5 6
M  V30 11 1 6 9
M  V30 12 1 6 13
M  V30 13 1 7 8
M  V30 14 1 7 9
M  V30 15 1 7 14
M  V30 16 1 9 15
M  V30 END BOND
M  V30 END CTAB
M  END
>  <ID>
846
$$$$
Structure_847
Score 	 6.0, smilesprid 	smiles	 smilestrue 	smiles	 similartanimoto 	0	 similardice 	0

   15   16  0  0  0  0            999 V3000
M  V30 BEGIN CTAB
M  V30 COUNTS 15 16 0 0 0
M  V30 BEGIN ATOM
M  V30 1 C -2.5391 -0.1953 0.0000 0
M  V30 2 C -1.7578 -1.3672 0.0000 0
M  V30 3 C -1.7578 0.9766 0.0000 0
M  V30 4 C -0.3906 -0.7812 0.0000 0
M  V30 5 C -0.3906 0.5859 0.0000 0
M  V30 6 C 0.7812 1.1719 0.0000 0
M  V30 7 C 1.9531 -0.7812 0.0000 0
M  V30 8 N 0.7812 -1.5625 0.0000 0
M  V30 9 N 1.9531 0.3906 0.0000 0
M  V30 10 H -3.5156 -0.1953 0.0000 0
M  V30 11 H -2.1484 2.1484 0.0000 0
M  V30 12 H -1.9531 -2.3438 0.0000 0
M  V30 13 H 0.9766 2.3438 0.0000 0
M  V30 14 H 2.9297 -1.3672 0.0000 0
M  V30 15 H 2.7344 0.9766 0.0000 0
M  V30 END ATOM
M  V30 BEGIN BOND
M  V30 1 1 1 2
M  V30 2 1 1 3
M  V30 3 1 1 10
M  V30 4 2 2 4
M  V30 5 1 2 12
M  V30 6 2 3 5
M  V30 7 1 3 11
M  V30 8 2 4 5
M  V30 9 2 4 8
M  V30 10 1 5 6
M  V30 11 1 6 9
M  V30 12 1 6 13
M  V30 13 1 7 8
M  V30 14 1 7 9
M  V30 15 1 7 14
M  V30 16 1 9 15
M  V30 END BOND
M  V30 END CTAB
M  END
>  <ID>
847
$$$$
Structure_848
Score 	 6.0, smilesprid 	smiles	 smilestrue 	smiles	 similartanimoto 	0	 similardice 	0

   15   16  0  0  0  0            999 V3000
M  V30 BEGIN CTAB
M  V30 COUNTS 15 16 0 0 0
M  V30 BEGIN ATOM
M  V30 1 C -2.5391 -0.1953 0.0000 0
M  V30 2 C -1.7578 -1.3672 0.0000 0
M  V30 3 C -1.7578 0.9766 0.0000 0
M  V30 4 C -0.3906 -0.7812 0.0000 0
M  V30 5 C -0.3906 0.5859 0.0000 0
M  V30 6 C 0.7812 1.1719 0.0000 0
M  V30 7 C 1.9531 -0.7812 0.0000 0
M  V30 8 N 0.7812 -1.5625 0.0000 0
M  V30 9 N 1.9531 0.3906 0.0000 0
M  V30 10 H -3.5156 -0.1953 0.0000 0
M  V30 11 H -2.1484 2.1484 0.0000 0
M  V30 12 H -1.9531 -2.3438 0.0000 0
M  V30 13 H 0.9766 2.3438 0.0000 0
M  V30 14 H 2.9297 -1.3672 0.0000 0
M  V30 15 H 2.7344 0.9766 0.0000 0
M  V30 END ATOM
M  V30 BEGIN BOND
M  V30 1 2 1 2
M  V30 2 1 1 3
M  V30 3 1 1 10
M  V30 4 2 2 4
M  V30 5 1 2 12
M  V30 6 2 3 5
M  V30 7 1 3 11
M  V30 8 2 4 5
M  V30 9 2 4 8
M  V30 10 1 5 6
M  V30 11 1 6 9
M  V30 12 1 6 13
M  V30 13 1 7 8
M  V30 14 1 7 9
M  V30 15 1 7 14
M  V30 16 1 9 15
M  V30 END BOND
M  V30 END CTAB
M  END
>  <ID>
848
$$$$
Structure_849
Score 	 8.0, smilesprid 	smiles	 smilestrue 	smiles	 similartanimoto 	0	 similardice 	0

   15   16  0  0  0  0            999 V3000
M  V30 BEGIN CTAB
M  V30 COUNTS 15 16 0 0 0
M  V30 BEGIN ATOM
M  V30 1 C -2.5391 -0.1953 0.0000 0
M  V30 2 C -1.7578 -1.3672 0.0000 0
M  V30 3 C -1.7578 0.9766 0.0000 0
M  V30 4 C -0.3906 -0.7812 0.0000 0
M  V30 5 C -0.3906 0.5859 0.0000 0
M  V30 6 C 0.7812 1.1719 0.0000 0
M  V30 7 C 1.9531 -0.7812 0.0000 0
M  V30 8 N 0.7812 -1.5625 0.0000 0
M  V30 9 N 1.9531 0.3906 0.0000 0
M  V30 10 H -3.5156 -0.1953 0.0000 0
M  V30 11 H -2.1484 2.1484 0.0000 0
M  V30 12 H -1.9531 -2.3438 0.0000 0
M  V30 13 H 0.9766 2.3438 0.0000 0
M  V30 14 H 2.9297 -1.3672 0.0000 0
M  V30 15 H 2.7344 0.9766 0.0000 0
M  V30 END ATOM
M  V30 BEGIN BOND
M  V30 1 3 1 2
M  V30 2 1 1 3
M  V30 3 1 1 10
M  V30 4 2 2 4
M  V30 5 1 2 12
M  V30 6 2 3 5
M  V30 7 1 3 11
M  V30 8 2 4 5
M  V30 9 2 4 8
M  V30 10 1 5 6
M  V30 11 1 6 9
M  V30 12 1 6 13
M  V30 13 1 7 8
M  V30 14 1 7 9
M  V30 15 1 7 14
M  V30 16 1 9 15
M  V30 END BOND
M  V30 END CTAB
M  END
>  <ID>
849
$$$$
Structure_850
Score 	 6.0, smilesprid 	smiles	 smilestrue 	smiles	 similartanimoto 	0	 similardice 	0

   15   16  0  0  0  0            999 V3000
M  V30 BEGIN CTAB
M  V30 COUNTS 15 16 0 0 0
M  V30 BEGIN ATOM
M  V30 1 C -2.5391 -0.1953 0.0000 0
M  V30 2 C -1.7578 -1.3672 0.0000 0
M  V30 3 C -1.7578 0.9766 0.0000 0
M  V30 4 C -0.3906 -0.7812 0.0000 0
M  V30 5 C -0.3906 0.5859 0.0000 0
M  V30 6 C 0.7812 1.1719 0.0000 0
M  V30 7 C 1.9531 -0.7812 0.0000 0
M  V30 8 N 0.7812 -1.5625 0.0000 0
M  V30 9 N 1.9531 0.3906 0.0000 0
M  V30 10 H -3.5156 -0.1953 0.0000 0
M  V30 11 H -2.1484 2.1484 0.0000 0
M  V30 12 H -1.9531 -2.3438 0.0000 0
M  V30 13 H 0.9766 2.3438 0.0000 0
M  V30 14 H 2.9297 -1.3672 0.0000 0
M  V30 15 H 2.7344 0.9766 0.0000 0
M  V30 END ATOM
M  V30 BEGIN BOND
M  V30 1 1 1 2
M  V30 2 2 1 3
M  V30 3 1 1 10
M  V30 4 2 2 4
M  V30 5 1 2 12
M  V30 6 2 3 5
M  V30 7 1 3 11
M  V30 8 2 4 5
M  V30 9 2 4 8
M  V30 10 1 5 6
M  V30 11 1 6 9
M  V30 12 1 6 13
M  V30 13 1 7 8
M  V30 14 1 7 9
M  V30 15 1 7 14
M  V30 16 1 9 15
M  V30 END BOND
M  V30 END CTAB
M  END
>  <ID>
850
$$$$
Structure_851
Score 	 8.0, smilesprid 	smiles	 smilestrue 	smiles	 similartanimoto 	0	 similardice 	0

   15   16  0  0  0  0            999 V3000
M  V30 BEGIN CTAB
M  V30 COUNTS 15 16 0 0 0
M  V30 BEGIN ATOM
M  V30 1 C -2.5391 -0.1953 0.0000 0
M  V30 2 C -1.7578 -1.3672 0.0000 0
M  V30 3 C -1.7578 0.9766 0.0000 0
M  V30 4 C -0.3906 -0.7812 0.0000 0
M  V30 5 C -0.3906 0.5859 0.0000 0
M  V30 6 C 0.7812 1.1719 0.0000 0
M  V30 7 C 1.9531 -0.7812 0.0000 0
M  V30 8 N 0.7812 -1.5625 0.0000 0
M  V30 9 N 1.9531 0.3906 0.0000 0
M  V30 10 H -3.5156 -0.1953 0.0000 0
M  V30 11 H -2.1484 2.1484 0.0000 0
M  V30 12 H -1.9531 -2.3438 0.0000 0
M  V30 13 H 0.9766 2.3438 0.0000 0
M  V30 14 H 2.9297 -1.3672 0.0000 0
M  V30 15 H 2.7344 0.9766 0.0000 0
M  V30 END ATOM
M  V30 BEGIN BOND
M  V30 1 2 1 2
M  V30 2 2 1 3
M  V30 3 1 1 10
M  V30 4 2 2 4
M  V30 5 1 2 12
M  V30 6 2 3 5
M  V30 7 1 3 11
M  V30 8 2 4 5
M  V30 9 2 4 8
M  V30 10 1 5 6
M  V30 11 1 6 9
M  V30 12 1 6 13
M  V30 13 1 7 8
M  V30 14 1 7 9
M  V30 15 1 7 14
M  V30 16 1 9 15
M  V30 END BOND
M  V30 END CTAB
M  END
>  <ID>
851
$$$$
Structure_852
Score 	 10.0, smilesprid 	smiles	 smilestrue 	smiles	 similartanimoto 	0	 similardice 	0

   15   16  0  0  0  0            999 V3000
M  V30 BEGIN CTAB
M  V30 COUNTS 15 16 0 0 0
M  V30 BEGIN ATOM
M  V30 1 C -2.5391 -0.1953 0.0000 0
M  V30 2 C -1.7578 -1.3672 0.0000 0
M  V30 3 C -1.7578 0.9766 0.0000 0
M  V30 4 C -0.3906 -0.7812 0.0000 0
M  V30 5 C -0.3906 0.5859 0.0000 0
M  V30 6 C 0.7812 1.1719 0.0000 0
M  V30 7 C 1.9531 -0.7812 0.0000 0
M  V30 8 N 0.7812 -1.5625 0.0000 0
M  V30 9 N 1.9531 0.3906 0.0000 0
M  V30 10 H -3.5156 -0.1953 0.0000 0
M  V30 11 H -2.1484 2.1484 0.0000 0
M  V30 12 H -1.9531 -2.3438 0.0000 0
M  V30 13 H 0.9766 2.3438 0.0000 0
M  V30 14 H 2.9297 -1.3672 0.0000 0
M  V30 15 H 2.7344 0.9766 0.0000 0
M  V30 END ATOM
M  V30 BEGIN BOND
M  V30 1 3 1 2
M  V30 2 2 1 3
M  V30 3 1 1 10
M  V30 4 2 2 4
M  V30 5 1 2 12
M  V30 6 2 3 5
M  V30 7 1 3 11
M  V30 8 2 4 5
M  V30 9 2 4 8
M  V30 10 1 5 6
M  V30 11 1 6 9
M  V30 12 1 6 13
M  V30 13 1 7 8
M  V30 14 1 7 9
M  V30 15 1 7 14
M  V30 16 1 9 15
M  V30 END BOND
M  V30 END CTAB
M  END
>  <ID>
852
$$$$
Structure_853
Score 	 8.0, smilesprid 	smiles	 smilestrue 	smiles	 similartanimoto 	0	 similardice 	0

   15   16  0  0  0  0            999 V3000
M  V30 BEGIN CTAB
M  V30 COUNTS 15 16 0 0 0
M  V30 BEGIN ATOM
M  V30 1 C -2.5391 -0.1953 0.0000 0
M  V30 2 C -1.7578 -1.3672 0.0000 0
M  V30 3 C -1.7578 0.9766 0.0000 0
M  V30 4 C -0.3906 -0.7812 0.0000 0
M  V30 5 C -0.3906 0.5859 0.0000 0
M  V30 6 C 0.7812 1.1719 0.0000 0
M  V30 7 C 1.9531 -0.7812 0.0000 0
M  V30 8 N 0.7812 -1.5625 0.0000 0
M  V30 9 N 1.9531 0.3906 0.0000 0
M  V30 10 H -3.5156 -0.1953 0.0000 0
M  V30 11 H -2.1484 2.1484 0.0000 0
M  V30 12 H -1.9531 -2.3438 0.0000 0
M  V30 13 H 0.9766 2.3438 0.0000 0
M  V30 14 H 2.9297 -1.3672 0.0000 0
M  V30 15 H 2.7344 0.9766 0.0000 0
M  V30 END ATOM
M  V30 BEGIN BOND
M  V30 1 1 1 2
M  V30 2 3 1 3
M  V30 3 1 1 10
M  V30 4 2 2 4
M  V30 5 1 2 12
M  V30 6 2 3 5
M  V30 7 1 3 11
M  V30 8 2 4 5
M  V30 9 2 4 8
M  V30 10 1 5 6
M  V30 11 1 6 9
M  V30 12 1 6 13
M  V30 13 1 7 8
M  V30 14 1 7 9
M  V30 15 1 7 14
M  V30 16 1 9 15
M  V30 END BOND
M  V30 END CTAB
M  END
>  <ID>
853
$$$$
Structure_854
Score 	 10.0, smilesprid 	smiles	 smilestrue 	smiles	 similartanimoto 	0	 similardice 	0

   15   16  0  0  0  0            999 V3000
M  V30 BEGIN CTAB
M  V30 COUNTS 15 16 0 0 0
M  V30 BEGIN ATOM
M  V30 1 C -2.5391 -0.1953 0.0000 0
M  V30 2 C -1.7578 -1.3672 0.0000 0
M  V30 3 C -1.7578 0.9766 0.0000 0
M  V30 4 C -0.3906 -0.7812 0.0000 0
M  V30 5 C -0.3906 0.5859 0.0000 0
M  V30 6 C 0.7812 1.1719 0.0000 0
M  V30 7 C 1.9531 -0.7812 0.0000 0
M  V30 8 N 0.7812 -1.5625 0.0000 0
M  V30 9 N 1.9531 0.3906 0.0000 0
M  V30 10 H -3.5156 -0.1953 0.0000 0
M  V30 11 H -2.1484 2.1484 0.0000 0
M  V30 12 H -1.9531 -2.3438 0.0000 0
M  V30 13 H 0.9766 2.3438 0.0000 0
M  V30 14 H 2.9297 -1.3672 0.0000 0
M  V30 15 H 2.7344 0.9766 0.0000 0
M  V30 END ATOM
M  V30 BEGIN BOND
M  V30 1 2 1 2
M  V30 2 3 1 3
M  V30 3 1 1 10
M  V30 4 2 2 4
M  V30 5 1 2 12
M  V30 6 2 3 5
M  V30 7 1 3 11
M  V30 8 2 4 5
M  V30 9 2 4 8
M  V30 10 1 5 6
M  V30 11 1 6 9
M  V30 12 1 6 13
M  V30 13 1 7 8
M  V30 14 1 7 9
M  V30 15 1 7 14
M  V30 16 1 9 15
M  V30 END BOND
M  V30 END CTAB
M  END
>  <ID>
854
$$$$
Structure_855
Score 	 12.0, smilesprid 	smiles	 smilestrue 	smiles	 similartanimoto 	0	 similardice 	0

   15   16  0  0  0  0            999 V3000
M  V30 BEGIN CTAB
M  V30 COUNTS 15 16 0 0 0
M  V30 BEGIN ATOM
M  V30 1 C -2.5391 -0.1953 0.0000 0
M  V30 2 C -1.7578 -1.3672 0.0000 0
M  V30 3 C -1.7578 0.9766 0.0000 0
M  V30 4 C -0.3906 -0.7812 0.0000 0
M  V30 5 C -0.3906 0.5859 0.0000 0
M  V30 6 C 0.7812 1.1719 0.0000 0
M  V30 7 C 1.9531 -0.7812 0.0000 0
M  V30 8 N 0.7812 -1.5625 0.0000 0
M  V30 9 N 1.9531 0.3906 0.0000 0
M  V30 10 H -3.5156 -0.1953 0.0000 0
M  V30 11 H -2.1484 2.1484 0.0000 0
M  V30 12 H -1.9531 -2.3438 0.0000 0
M  V30 13 H 0.9766 2.3438 0.0000 0
M  V30 14 H 2.9297 -1.3672 0.0000 0
M  V30 15 H 2.7344 0.9766 0.0000 0
M  V30 END ATOM
M  V30 BEGIN BOND
M  V30 1 3 1 2
M  V30 2 3 1 3
M  V30 3 1 1 10
M  V30 4 2 2 4
M  V30 5 1 2 12
M  V30 6 2 3 5
M  V30 7 1 3 11
M  V30 8 2 4 5
M  V30 9 2 4 8
M  V30 10 1 5 6
M  V30 11 1 6 9
M  V30 12 1 6 13
M  V30 13 1 7 8
M  V30 14 1 7 9
M  V30 15 1 7 14
M  V30 16 1 9 15
M  V30 END BOND
M  V30 END CTAB
M  END
>  <ID>
855
$$$$
Structure_856
Score 	 8.0, smilesprid 	smiles	 smilestrue 	smiles	 similartanimoto 	0	 similardice 	0

   15   16  0  0  0  0            999 V3000
M  V30 BEGIN CTAB
M  V30 COUNTS 15 16 0 0 0
M  V30 BEGIN ATOM
M  V30 1 C -2.5391 -0.1953 0.0000 0
M  V30 2 C -1.7578 -1.3672 0.0000 0
M  V30 3 C -1.7578 0.9766 0.0000 0
M  V30 4 C -0.3906 -0.7812 0.0000 0
M  V30 5 C -0.3906 0.5859 0.0000 0
M  V30 6 C 0.7812 1.1719 0.0000 0
M  V30 7 C 1.9531 -0.7812 0.0000 0
M  V30 8 N 0.7812 -1.5625 0.0000 0
M  V30 9 N 1.9531 0.3906 0.0000 0
M  V30 10 H -3.5156 -0.1953 0.0000 0
M  V30 11 H -2.1484 2.1484 0.0000 0
M  V30 12 H -1.9531 -2.3438 0.0000 0
M  V30 13 H 0.9766 2.3438 0.0000 0
M  V30 14 H 2.9297 -1.3672 0.0000 0
M  V30 15 H 2.7344 0.9766 0.0000 0
M  V30 END ATOM
M  V30 BEGIN BOND
M  V30 1 1 1 2
M  V30 2 1 1 3
M  V30 3 1 1 10
M  V30 4 2 2 4
M  V30 5 1 2 12
M  V30 6 3 3 5
M  V30 7 1 3 11
M  V30 8 2 4 5
M  V30 9 2 4 8
M  V30 10 1 5 6
M  V30 11 1 6 9
M  V30 12 1 6 13
M  V30 13 1 7 8
M  V30 14 1 7 9
M  V30 15 1 7 14
M  V30 16 1 9 15
M  V30 END BOND
M  V30 END CTAB
M  END
>  <ID>
856
$$$$
Structure_857
Score 	 8.0, smilesprid 	smiles	 smilestrue 	smiles	 similartanimoto 	0	 similardice 	0

   15   16  0  0  0  0            999 V3000
M  V30 BEGIN CTAB
M  V30 COUNTS 15 16 0 0 0
M  V30 BEGIN ATOM
M  V30 1 C -2.5391 -0.1953 0.0000 0
M  V30 2 C -1.7578 -1.3672 0.0000 0
M  V30 3 C -1.7578 0.9766 0.0000 0
M  V30 4 C -0.3906 -0.7812 0.0000 0
M  V30 5 C -0.3906 0.5859 0.0000 0
M  V30 6 C 0.7812 1.1719 0.0000 0
M  V30 7 C 1.9531 -0.7812 0.0000 0
M  V30 8 N 0.7812 -1.5625 0.0000 0
M  V30 9 N 1.9531 0.3906 0.0000 0
M  V30 10 H -3.5156 -0.1953 0.0000 0
M  V30 11 H -2.1484 2.1484 0.0000 0
M  V30 12 H -1.9531 -2.3438 0.0000 0
M  V30 13 H 0.9766 2.3438 0.0000 0
M  V30 14 H 2.9297 -1.3672 0.0000 0
M  V30 15 H 2.7344 0.9766 0.0000 0
M  V30 END ATOM
M  V30 BEGIN BOND
M  V30 1 2 1 2
M  V30 2 1 1 3
M  V30 3 1 1 10
M  V30 4 2 2 4
M  V30 5 1 2 12
M  V30 6 3 3 5
M  V30 7 1 3 11
M  V30 8 2 4 5
M  V30 9 2 4 8
M  V30 10 1 5 6
M  V30 11 1 6 9
M  V30 12 1 6 13
M  V30 13 1 7 8
M  V30 14 1 7 9
M  V30 15 1 7 14
M  V30 16 1 9 15
M  V30 END BOND
M  V30 END CTAB
M  END
>  <ID>
857
$$$$
Structure_858
Score 	 10.0, smilesprid 	smiles	 smilestrue 	smiles	 similartanimoto 	0	 similardice 	0

   15   16  0  0  0  0            999 V3000
M  V30 BEGIN CTAB
M  V30 COUNTS 15 16 0 0 0
M  V30 BEGIN ATOM
M  V30 1 C -2.5391 -0.1953 0.0000 0
M  V30 2 C -1.7578 -1.3672 0.0000 0
M  V30 3 C -1.7578 0.9766 0.0000 0
M  V30 4 C -0.3906 -0.7812 0.0000 0
M  V30 5 C -0.3906 0.5859 0.0000 0
M  V30 6 C 0.7812 1.1719 0.0000 0
M  V30 7 C 1.9531 -0.7812 0.0000 0
M  V30 8 N 0.7812 -1.5625 0.0000 0
M  V30 9 N 1.9531 0.3906 0.0000 0
M  V30 10 H -3.5156 -0.1953 0.0000 0
M  V30 11 H -2.1484 2.1484 0.0000 0
M  V30 12 H -1.9531 -2.3438 0.0000 0
M  V30 13 H 0.9766 2.3438 0.0000 0
M  V30 14 H 2.9297 -1.3672 0.0000 0
M  V30 15 H 2.7344 0.9766 0.0000 0
M  V30 END ATOM
M  V30 BEGIN BOND
M  V30 1 3 1 2
M  V30 2 1 1 3
M  V30 3 1 1 10
M  V30 4 2 2 4
M  V30 5 1 2 12
M  V30 6 3 3 5
M  V30 7 1 3 11
M  V30 8 2 4 5
M  V30 9 2 4 8
M  V30 10 1 5 6
M  V30 11 1 6 9
M  V30 12 1 6 13
M  V30 13 1 7 8
M  V30 14 1 7 9
M  V30 15 1 7 14
M  V30 16 1 9 15
M  V30 END BOND
M  V30 END CTAB
M  END
>  <ID>
858
$$$$
Structure_859
Score 	 8.0, smilesprid 	smiles	 smilestrue 	smiles	 similartanimoto 	0	 similardice 	0

   15   16  0  0  0  0            999 V3000
M  V30 BEGIN CTAB
M  V30 COUNTS 15 16 0 0 0
M  V30 BEGIN ATOM
M  V30 1 C -2.5391 -0.1953 0.0000 0
M  V30 2 C -1.7578 -1.3672 0.0000 0
M  V30 3 C -1.7578 0.9766 0.0000 0
M  V30 4 C -0.3906 -0.7812 0.0000 0
M  V30 5 C -0.3906 0.5859 0.0000 0
M  V30 6 C 0.7812 1.1719 0.0000 0
M  V30 7 C 1.9531 -0.7812 0.0000 0
M  V30 8 N 0.7812 -1.5625 0.0000 0
M  V30 9 N 1.9531 0.3906 0.0000 0
M  V30 10 H -3.5156 -0.1953 0.0000 0
M  V30 11 H -2.1484 2.1484 0.0000 0
M  V30 12 H -1.9531 -2.3438 0.0000 0
M  V30 13 H 0.9766 2.3438 0.0000 0
M  V30 14 H 2.9297 -1.3672 0.0000 0
M  V30 15 H 2.7344 0.9766 0.0000 0
M  V30 END ATOM
M  V30 BEGIN BOND
M  V30 1 1 1 2
M  V30 2 2 1 3
M  V30 3 1 1 10
M  V30 4 2 2 4
M  V30 5 1 2 12
M  V30 6 3 3 5
M  V30 7 1 3 11
M  V30 8 2 4 5
M  V30 9 2 4 8
M  V30 10 1 5 6
M  V30 11 1 6 9
M  V30 12 1 6 13
M  V30 13 1 7 8
M  V30 14 1 7 9
M  V30 15 1 7 14
M  V30 16 1 9 15
M  V30 END BOND
M  V30 END CTAB
M  END
>  <ID>
859
$$$$
Structure_860
Score 	 10.0, smilesprid 	smiles	 smilestrue 	smiles	 similartanimoto 	0	 similardice 	0

   15   16  0  0  0  0            999 V3000
M  V30 BEGIN CTAB
M  V30 COUNTS 15 16 0 0 0
M  V30 BEGIN ATOM
M  V30 1 C -2.5391 -0.1953 0.0000 0
M  V30 2 C -1.7578 -1.3672 0.0000 0
M  V30 3 C -1.7578 0.9766 0.0000 0
M  V30 4 C -0.3906 -0.7812 0.0000 0
M  V30 5 C -0.3906 0.5859 0.0000 0
M  V30 6 C 0.7812 1.1719 0.0000 0
M  V30 7 C 1.9531 -0.7812 0.0000 0
M  V30 8 N 0.7812 -1.5625 0.0000 0
M  V30 9 N 1.9531 0.3906 0.0000 0
M  V30 10 H -3.5156 -0.1953 0.0000 0
M  V30 11 H -2.1484 2.1484 0.0000 0
M  V30 12 H -1.9531 -2.3438 0.0000 0
M  V30 13 H 0.9766 2.3438 0.0000 0
M  V30 14 H 2.9297 -1.3672 0.0000 0
M  V30 15 H 2.7344 0.9766 0.0000 0
M  V30 END ATOM
M  V30 BEGIN BOND
M  V30 1 2 1 2
M  V30 2 2 1 3
M  V30 3 1 1 10
M  V30 4 2 2 4
M  V30 5 1 2 12
M  V30 6 3 3 5
M  V30 7 1 3 11
M  V30 8 2 4 5
M  V30 9 2 4 8
M  V30 10 1 5 6
M  V30 11 1 6 9
M  V30 12 1 6 13
M  V30 13 1 7 8
M  V30 14 1 7 9
M  V30 15 1 7 14
M  V30 16 1 9 15
M  V30 END BOND
M  V30 END CTAB
M  END
>  <ID>
860
$$$$
Structure_861
Score 	 12.0, smilesprid 	smiles	 smilestrue 	smiles	 similartanimoto 	0	 similardice 	0

   15   16  0  0  0  0            999 V3000
M  V30 BEGIN CTAB
M  V30 COUNTS 15 16 0 0 0
M  V30 BEGIN ATOM
M  V30 1 C -2.5391 -0.1953 0.0000 0
M  V30 2 C -1.7578 -1.3672 0.0000 0
M  V30 3 C -1.7578 0.9766 0.0000 0
M  V30 4 C -0.3906 -0.7812 0.0000 0
M  V30 5 C -0.3906 0.5859 0.0000 0
M  V30 6 C 0.7812 1.1719 0.0000 0
M  V30 7 C 1.9531 -0.7812 0.0000 0
M  V30 8 N 0.7812 -1.5625 0.0000 0
M  V30 9 N 1.9531 0.3906 0.0000 0
M  V30 10 H -3.5156 -0.1953 0.0000 0
M  V30 11 H -2.1484 2.1484 0.0000 0
M  V30 12 H -1.9531 -2.3438 0.0000 0
M  V30 13 H 0.9766 2.3438 0.0000 0
M  V30 14 H 2.9297 -1.3672 0.0000 0
M  V30 15 H 2.7344 0.9766 0.0000 0
M  V30 END ATOM
M  V30 BEGIN BOND
M  V30 1 3 1 2
M  V30 2 2 1 3
M  V30 3 1 1 10
M  V30 4 2 2 4
M  V30 5 1 2 12
M  V30 6 3 3 5
M  V30 7 1 3 11
M  V30 8 2 4 5
M  V30 9 2 4 8
M  V30 10 1 5 6
M  V30 11 1 6 9
M  V30 12 1 6 13
M  V30 13 1 7 8
M  V30 14 1 7 9
M  V30 15 1 7 14
M  V30 16 1 9 15
M  V30 END BOND
M  V30 END CTAB
M  END
>  <ID>
861
$$$$
Structure_862
Score 	 10.0, smilesprid 	smiles	 smilestrue 	smiles	 similartanimoto 	0	 similardice 	0

   15   16  0  0  0  0            999 V3000
M  V30 BEGIN CTAB
M  V30 COUNTS 15 16 0 0 0
M  V30 BEGIN ATOM
M  V30 1 C -2.5391 -0.1953 0.0000 0
M  V30 2 C -1.7578 -1.3672 0.0000 0
M  V30 3 C -1.7578 0.9766 0.0000 0
M  V30 4 C -0.3906 -0.7812 0.0000 0
M  V30 5 C -0.3906 0.5859 0.0000 0
M  V30 6 C 0.7812 1.1719 0.0000 0
M  V30 7 C 1.9531 -0.7812 0.0000 0
M  V30 8 N 0.7812 -1.5625 0.0000 0
M  V30 9 N 1.9531 0.3906 0.0000 0
M  V30 10 H -3.5156 -0.1953 0.0000 0
M  V30 11 H -2.1484 2.1484 0.0000 0
M  V30 12 H -1.9531 -2.3438 0.0000 0
M  V30 13 H 0.9766 2.3438 0.0000 0
M  V30 14 H 2.9297 -1.3672 0.0000 0
M  V30 15 H 2.7344 0.9766 0.0000 0
M  V30 END ATOM
M  V30 BEGIN BOND
M  V30 1 1 1 2
M  V30 2 3 1 3
M  V30 3 1 1 10
M  V30 4 2 2 4
M  V30 5 1 2 12
M  V30 6 3 3 5
M  V30 7 1 3 11
M  V30 8 2 4 5
M  V30 9 2 4 8
M  V30 10 1 5 6
M  V30 11 1 6 9
M  V30 12 1 6 13
M  V30 13 1 7 8
M  V30 14 1 7 9
M  V30 15 1 7 14
M  V30 16 1 9 15
M  V30 END BOND
M  V30 END CTAB
M  END
>  <ID>
862
$$$$
Structure_863
Score 	 12.0, smilesprid 	smiles	 smilestrue 	smiles	 similartanimoto 	0	 similardice 	0

   15   16  0  0  0  0            999 V3000
M  V30 BEGIN CTAB
M  V30 COUNTS 15 16 0 0 0
M  V30 BEGIN ATOM
M  V30 1 C -2.5391 -0.1953 0.0000 0
M  V30 2 C -1.7578 -1.3672 0.0000 0
M  V30 3 C -1.7578 0.9766 0.0000 0
M  V30 4 C -0.3906 -0.7812 0.0000 0
M  V30 5 C -0.3906 0.5859 0.0000 0
M  V30 6 C 0.7812 1.1719 0.0000 0
M  V30 7 C 1.9531 -0.7812 0.0000 0
M  V30 8 N 0.7812 -1.5625 0.0000 0
M  V30 9 N 1.9531 0.3906 0.0000 0
M  V30 10 H -3.5156 -0.1953 0.0000 0
M  V30 11 H -2.1484 2.1484 0.0000 0
M  V30 12 H -1.9531 -2.3438 0.0000 0
M  V30 13 H 0.9766 2.3438 0.0000 0
M  V30 14 H 2.9297 -1.3672 0.0000 0
M  V30 15 H 2.7344 0.9766 0.0000 0
M  V30 END ATOM
M  V30 BEGIN BOND
M  V30 1 2 1 2
M  V30 2 3 1 3
M  V30 3 1 1 10
M  V30 4 2 2 4
M  V30 5 1 2 12
M  V30 6 3 3 5
M  V30 7 1 3 11
M  V30 8 2 4 5
M  V30 9 2 4 8
M  V30 10 1 5 6
M  V30 11 1 6 9
M  V30 12 1 6 13
M  V30 13 1 7 8
M  V30 14 1 7 9
M  V30 15 1 7 14
M  V30 16 1 9 15
M  V30 END BOND
M  V30 END CTAB
M  END
>  <ID>
863
$$$$
Structure_864
Score 	 14.0, smilesprid 	smiles	 smilestrue 	smiles	 similartanimoto 	0	 similardice 	0

   15   16  0  0  0  0            999 V3000
M  V30 BEGIN CTAB
M  V30 COUNTS 15 16 0 0 0
M  V30 BEGIN ATOM
M  V30 1 C -2.5391 -0.1953 0.0000 0
M  V30 2 C -1.7578 -1.3672 0.0000 0
M  V30 3 C -1.7578 0.9766 0.0000 0
M  V30 4 C -0.3906 -0.7812 0.0000 0
M  V30 5 C -0.3906 0.5859 0.0000 0
M  V30 6 C 0.7812 1.1719 0.0000 0
M  V30 7 C 1.9531 -0.7812 0.0000 0
M  V30 8 N 0.7812 -1.5625 0.0000 0
M  V30 9 N 1.9531 0.3906 0.0000 0
M  V30 10 H -3.5156 -0.1953 0.0000 0
M  V30 11 H -2.1484 2.1484 0.0000 0
M  V30 12 H -1.9531 -2.3438 0.0000 0
M  V30 13 H 0.9766 2.3438 0.0000 0
M  V30 14 H 2.9297 -1.3672 0.0000 0
M  V30 15 H 2.7344 0.9766 0.0000 0
M  V30 END ATOM
M  V30 BEGIN BOND
M  V30 1 3 1 2
M  V30 2 3 1 3
M  V30 3 1 1 10
M  V30 4 2 2 4
M  V30 5 1 2 12
M  V30 6 3 3 5
M  V30 7 1 3 11
M  V30 8 2 4 5
M  V30 9 2 4 8
M  V30 10 1 5 6
M  V30 11 1 6 9
M  V30 12 1 6 13
M  V30 13 1 7 8
M  V30 14 1 7 9
M  V30 15 1 7 14
M  V30 16 1 9 15
M  V30 END BOND
M  V30 END CTAB
M  END
>  <ID>
864
$$$$
Structure_865
Score 	 8.0, smilesprid 	smiles	 smilestrue 	smiles	 similartanimoto 	0	 similardice 	0

   15   16  0  0  0  0            999 V3000
M  V30 BEGIN CTAB
M  V30 COUNTS 15 16 0 0 0
M  V30 BEGIN ATOM
M  V30 1 C -2.5391 -0.1953 0.0000 0
M  V30 2 C -1.7578 -1.3672 0.0000 0
M  V30 3 C -1.7578 0.9766 0.0000 0
M  V30 4 C -0.3906 -0.7812 0.0000 0
M  V30 5 C -0.3906 0.5859 0.0000 0
M  V30 6 C 0.7812 1.1719 0.0000 0
M  V30 7 C 1.9531 -0.7812 0.0000 0
M  V30 8 N 0.7812 -1.5625 0.0000 0
M  V30 9 N 1.9531 0.3906 0.0000 0
M  V30 10 H -3.5156 -0.1953 0.0000 0
M  V30 11 H -2.1484 2.1484 0.0000 0
M  V30 12 H -1.9531 -2.3438 0.0000 0
M  V30 13 H 0.9766 2.3438 0.0000 0
M  V30 14 H 2.9297 -1.3672 0.0000 0
M  V30 15 H 2.7344 0.9766 0.0000 0
M  V30 END ATOM
M  V30 BEGIN BOND
M  V30 1 1 1 2
M  V30 2 1 1 3
M  V30 3 1 1 10
M  V30 4 3 2 4
M  V30 5 1 2 12
M  V30 6 1 3 5
M  V30 7 1 3 11
M  V30 8 2 4 5
M  V30 9 2 4 8
M  V30 10 1 5 6
M  V30 11 1 6 9
M  V30 12 1 6 13
M  V30 13 1 7 8
M  V30 14 1 7 9
M  V30 15 1 7 14
M  V30 16 1 9 15
M  V30 END BOND
M  V30 END CTAB
M  END
>  <ID>
865
$$$$
Structure_866
Score 	 8.0, smilesprid 	smiles	 smilestrue 	smiles	 similartanimoto 	0	 similardice 	0

   15   16  0  0  0  0            999 V3000
M  V30 BEGIN CTAB
M  V30 COUNTS 15 16 0 0 0
M  V30 BEGIN ATOM
M  V30 1 C -2.5391 -0.1953 0.0000 0
M  V30 2 C -1.7578 -1.3672 0.0000 0
M  V30 3 C -1.7578 0.9766 0.0000 0
M  V30 4 C -0.3906 -0.7812 0.0000 0
M  V30 5 C -0.3906 0.5859 0.0000 0
M  V30 6 C 0.7812 1.1719 0.0000 0
M  V30 7 C 1.9531 -0.7812 0.0000 0
M  V30 8 N 0.7812 -1.5625 0.0000 0
M  V30 9 N 1.9531 0.3906 0.0000 0
M  V30 10 H -3.5156 -0.1953 0.0000 0
M  V30 11 H -2.1484 2.1484 0.0000 0
M  V30 12 H -1.9531 -2.3438 0.0000 0
M  V30 13 H 0.9766 2.3438 0.0000 0
M  V30 14 H 2.9297 -1.3672 0.0000 0
M  V30 15 H 2.7344 0.9766 0.0000 0
M  V30 END ATOM
M  V30 BEGIN BOND
M  V30 1 2 1 2
M  V30 2 1 1 3
M  V30 3 1 1 10
M  V30 4 3 2 4
M  V30 5 1 2 12
M  V30 6 1 3 5
M  V30 7 1 3 11
M  V30 8 2 4 5
M  V30 9 2 4 8
M  V30 10 1 5 6
M  V30 11 1 6 9
M  V30 12 1 6 13
M  V30 13 1 7 8
M  V30 14 1 7 9
M  V30 15 1 7 14
M  V30 16 1 9 15
M  V30 END BOND
M  V30 END CTAB
M  END
>  <ID>
866
$$$$
Structure_867
Score 	 10.0, smilesprid 	smiles	 smilestrue 	smiles	 similartanimoto 	0	 similardice 	0

   15   16  0  0  0  0            999 V3000
M  V30 BEGIN CTAB
M  V30 COUNTS 15 16 0 0 0
M  V30 BEGIN ATOM
M  V30 1 C -2.5391 -0.1953 0.0000 0
M  V30 2 C -1.7578 -1.3672 0.0000 0
M  V30 3 C -1.7578 0.9766 0.0000 0
M  V30 4 C -0.3906 -0.7812 0.0000 0
M  V30 5 C -0.3906 0.5859 0.0000 0
M  V30 6 C 0.7812 1.1719 0.0000 0
M  V30 7 C 1.9531 -0.7812 0.0000 0
M  V30 8 N 0.7812 -1.5625 0.0000 0
M  V30 9 N 1.9531 0.3906 0.0000 0
M  V30 10 H -3.5156 -0.1953 0.0000 0
M  V30 11 H -2.1484 2.1484 0.0000 0
M  V30 12 H -1.9531 -2.3438 0.0000 0
M  V30 13 H 0.9766 2.3438 0.0000 0
M  V30 14 H 2.9297 -1.3672 0.0000 0
M  V30 15 H 2.7344 0.9766 0.0000 0
M  V30 END ATOM
M  V30 BEGIN BOND
M  V30 1 3 1 2
M  V30 2 1 1 3
M  V30 3 1 1 10
M  V30 4 3 2 4
M  V30 5 1 2 12
M  V30 6 1 3 5
M  V30 7 1 3 11
M  V30 8 2 4 5
M  V30 9 2 4 8
M  V30 10 1 5 6
M  V30 11 1 6 9
M  V30 12 1 6 13
M  V30 13 1 7 8
M  V30 14 1 7 9
M  V30 15 1 7 14
M  V30 16 1 9 15
M  V30 END BOND
M  V30 END CTAB
M  END
>  <ID>
867
$$$$
Structure_868
Score 	 6.0, smilesprid 	smiles	 smilestrue 	smiles	 similartanimoto 	0	 similardice 	0

   15   16  0  0  0  0            999 V3000
M  V30 BEGIN CTAB
M  V30 COUNTS 15 16 0 0 0
M  V30 BEGIN ATOM
M  V30 1 C -2.5391 -0.1953 0.0000 0
M  V30 2 C -1.7578 -1.3672 0.0000 0
M  V30 3 C -1.7578 0.9766 0.0000 0
M  V30 4 C -0.3906 -0.7812 0.0000 0
M  V30 5 C -0.3906 0.5859 0.0000 0
M  V30 6 C 0.7812 1.1719 0.0000 0
M  V30 7 C 1.9531 -0.7812 0.0000 0
M  V30 8 N 0.7812 -1.5625 0.0000 0
M  V30 9 N 1.9531 0.3906 0.0000 0
M  V30 10 H -3.5156 -0.1953 0.0000 0
M  V30 11 H -2.1484 2.1484 0.0000 0
M  V30 12 H -1.9531 -2.3438 0.0000 0
M  V30 13 H 0.9766 2.3438 0.0000 0
M  V30 14 H 2.9297 -1.3672 0.0000 0
M  V30 15 H 2.7344 0.9766 0.0000 0
M  V30 END ATOM
M  V30 BEGIN BOND
M  V30 1 1 1 2
M  V30 2 2 1 3
M  V30 3 1 1 10
M  V30 4 3 2 4
M  V30 5 1 2 12
M  V30 6 1 3 5
M  V30 7 1 3 11
M  V30 8 2 4 5
M  V30 9 2 4 8
M  V30 10 1 5 6
M  V30 11 1 6 9
M  V30 12 1 6 13
M  V30 13 1 7 8
M  V30 14 1 7 9
M  V30 15 1 7 14
M  V30 16 1 9 15
M  V30 END BOND
M  V30 END CTAB
M  END
>  <ID>
868
$$$$
Structure_869
Score 	 8.0, smilesprid 	smiles	 smilestrue 	smiles	 similartanimoto 	0	 similardice 	0

   15   16  0  0  0  0            999 V3000
M  V30 BEGIN CTAB
M  V30 COUNTS 15 16 0 0 0
M  V30 BEGIN ATOM
M  V30 1 C -2.5391 -0.1953 0.0000 0
M  V30 2 C -1.7578 -1.3672 0.0000 0
M  V30 3 C -1.7578 0.9766 0.0000 0
M  V30 4 C -0.3906 -0.7812 0.0000 0
M  V30 5 C -0.3906 0.5859 0.0000 0
M  V30 6 C 0.7812 1.1719 0.0000 0
M  V30 7 C 1.9531 -0.7812 0.0000 0
M  V30 8 N 0.7812 -1.5625 0.0000 0
M  V30 9 N 1.9531 0.3906 0.0000 0
M  V30 10 H -3.5156 -0.1953 0.0000 0
M  V30 11 H -2.1484 2.1484 0.0000 0
M  V30 12 H -1.9531 -2.3438 0.0000 0
M  V30 13 H 0.9766 2.3438 0.0000 0
M  V30 14 H 2.9297 -1.3672 0.0000 0
M  V30 15 H 2.7344 0.9766 0.0000 0
M  V30 END ATOM
M  V30 BEGIN BOND
M  V30 1 2 1 2
M  V30 2 2 1 3
M  V30 3 1 1 10
M  V30 4 3 2 4
M  V30 5 1 2 12
M  V30 6 1 3 5
M  V30 7 1 3 11
M  V30 8 2 4 5
M  V30 9 2 4 8
M  V30 10 1 5 6
M  V30 11 1 6 9
M  V30 12 1 6 13
M  V30 13 1 7 8
M  V30 14 1 7 9
M  V30 15 1 7 14
M  V30 16 1 9 15
M  V30 END BOND
M  V30 END CTAB
M  END
>  <ID>
869
$$$$
Structure_870
Score 	 10.0, smilesprid 	smiles	 smilestrue 	smiles	 similartanimoto 	0	 similardice 	0

   15   16  0  0  0  0            999 V3000
M  V30 BEGIN CTAB
M  V30 COUNTS 15 16 0 0 0
M  V30 BEGIN ATOM
M  V30 1 C -2.5391 -0.1953 0.0000 0
M  V30 2 C -1.7578 -1.3672 0.0000 0
M  V30 3 C -1.7578 0.9766 0.0000 0
M  V30 4 C -0.3906 -0.7812 0.0000 0
M  V30 5 C -0.3906 0.5859 0.0000 0
M  V30 6 C 0.7812 1.1719 0.0000 0
M  V30 7 C 1.9531 -0.7812 0.0000 0
M  V30 8 N 0.7812 -1.5625 0.0000 0
M  V30 9 N 1.9531 0.3906 0.0000 0
M  V30 10 H -3.5156 -0.1953 0.0000 0
M  V30 11 H -2.1484 2.1484 0.0000 0
M  V30 12 H -1.9531 -2.3438 0.0000 0
M  V30 13 H 0.9766 2.3438 0.0000 0
M  V30 14 H 2.9297 -1.3672 0.0000 0
M  V30 15 H 2.7344 0.9766 0.0000 0
M  V30 END ATOM
M  V30 BEGIN BOND
M  V30 1 3 1 2
M  V30 2 2 1 3
M  V30 3 1 1 10
M  V30 4 3 2 4
M  V30 5 1 2 12
M  V30 6 1 3 5
M  V30 7 1 3 11
M  V30 8 2 4 5
M  V30 9 2 4 8
M  V30 10 1 5 6
M  V30 11 1 6 9
M  V30 12 1 6 13
M  V30 13 1 7 8
M  V30 14 1 7 9
M  V30 15 1 7 14
M  V30 16 1 9 15
M  V30 END BOND
M  V30 END CTAB
M  END
>  <ID>
870
$$$$
Structure_871
Score 	 8.0, smilesprid 	smiles	 smilestrue 	smiles	 similartanimoto 	0	 similardice 	0

   15   16  0  0  0  0            999 V3000
M  V30 BEGIN CTAB
M  V30 COUNTS 15 16 0 0 0
M  V30 BEGIN ATOM
M  V30 1 C -2.5391 -0.1953 0.0000 0
M  V30 2 C -1.7578 -1.3672 0.0000 0
M  V30 3 C -1.7578 0.9766 0.0000 0
M  V30 4 C -0.3906 -0.7812 0.0000 0
M  V30 5 C -0.3906 0.5859 0.0000 0
M  V30 6 C 0.7812 1.1719 0.0000 0
M  V30 7 C 1.9531 -0.7812 0.0000 0
M  V30 8 N 0.7812 -1.5625 0.0000 0
M  V30 9 N 1.9531 0.3906 0.0000 0
M  V30 10 H -3.5156 -0.1953 0.0000 0
M  V30 11 H -2.1484 2.1484 0.0000 0
M  V30 12 H -1.9531 -2.3438 0.0000 0
M  V30 13 H 0.9766 2.3438 0.0000 0
M  V30 14 H 2.9297 -1.3672 0.0000 0
M  V30 15 H 2.7344 0.9766 0.0000 0
M  V30 END ATOM
M  V30 BEGIN BOND
M  V30 1 1 1 2
M  V30 2 3 1 3
M  V30 3 1 1 10
M  V30 4 3 2 4
M  V30 5 1 2 12
M  V30 6 1 3 5
M  V30 7 1 3 11
M  V30 8 2 4 5
M  V30 9 2 4 8
M  V30 10 1 5 6
M  V30 11 1 6 9
M  V30 12 1 6 13
M  V30 13 1 7 8
M  V30 14 1 7 9
M  V30 15 1 7 14
M  V30 16 1 9 15
M  V30 END BOND
M  V30 END CTAB
M  END
>  <ID>
871
$$$$
Structure_872
Score 	 10.0, smilesprid 	smiles	 smilestrue 	smiles	 similartanimoto 	0	 similardice 	0

   15   16  0  0  0  0            999 V3000
M  V30 BEGIN CTAB
M  V30 COUNTS 15 16 0 0 0
M  V30 BEGIN ATOM
M  V30 1 C -2.5391 -0.1953 0.0000 0
M  V30 2 C -1.7578 -1.3672 0.0000 0
M  V30 3 C -1.7578 0.9766 0.0000 0
M  V30 4 C -0.3906 -0.7812 0.0000 0
M  V30 5 C -0.3906 0.5859 0.0000 0
M  V30 6 C 0.7812 1.1719 0.0000 0
M  V30 7 C 1.9531 -0.7812 0.0000 0
M  V30 8 N 0.7812 -1.5625 0.0000 0
M  V30 9 N 1.9531 0.3906 0.0000 0
M  V30 10 H -3.5156 -0.1953 0.0000 0
M  V30 11 H -2.1484 2.1484 0.0000 0
M  V30 12 H -1.9531 -2.3438 0.0000 0
M  V30 13 H 0.9766 2.3438 0.0000 0
M  V30 14 H 2.9297 -1.3672 0.0000 0
M  V30 15 H 2.7344 0.9766 0.0000 0
M  V30 END ATOM
M  V30 BEGIN BOND
M  V30 1 2 1 2
M  V30 2 3 1 3
M  V30 3 1 1 10
M  V30 4 3 2 4
M  V30 5 1 2 12
M  V30 6 1 3 5
M  V30 7 1 3 11
M  V30 8 2 4 5
M  V30 9 2 4 8
M  V30 10 1 5 6
M  V30 11 1 6 9
M  V30 12 1 6 13
M  V30 13 1 7 8
M  V30 14 1 7 9
M  V30 15 1 7 14
M  V30 16 1 9 15
M  V30 END BOND
M  V30 END CTAB
M  END
>  <ID>
872
$$$$
Structure_873
Score 	 12.0, smilesprid 	smiles	 smilestrue 	smiles	 similartanimoto 	0	 similardice 	0

   15   16  0  0  0  0            999 V3000
M  V30 BEGIN CTAB
M  V30 COUNTS 15 16 0 0 0
M  V30 BEGIN ATOM
M  V30 1 C -2.5391 -0.1953 0.0000 0
M  V30 2 C -1.7578 -1.3672 0.0000 0
M  V30 3 C -1.7578 0.9766 0.0000 0
M  V30 4 C -0.3906 -0.7812 0.0000 0
M  V30 5 C -0.3906 0.5859 0.0000 0
M  V30 6 C 0.7812 1.1719 0.0000 0
M  V30 7 C 1.9531 -0.7812 0.0000 0
M  V30 8 N 0.7812 -1.5625 0.0000 0
M  V30 9 N 1.9531 0.3906 0.0000 0
M  V30 10 H -3.5156 -0.1953 0.0000 0
M  V30 11 H -2.1484 2.1484 0.0000 0
M  V30 12 H -1.9531 -2.3438 0.0000 0
M  V30 13 H 0.9766 2.3438 0.0000 0
M  V30 14 H 2.9297 -1.3672 0.0000 0
M  V30 15 H 2.7344 0.9766 0.0000 0
M  V30 END ATOM
M  V30 BEGIN BOND
M  V30 1 3 1 2
M  V30 2 3 1 3
M  V30 3 1 1 10
M  V30 4 3 2 4
M  V30 5 1 2 12
M  V30 6 1 3 5
M  V30 7 1 3 11
M  V30 8 2 4 5
M  V30 9 2 4 8
M  V30 10 1 5 6
M  V30 11 1 6 9
M  V30 12 1 6 13
M  V30 13 1 7 8
M  V30 14 1 7 9
M  V30 15 1 7 14
M  V30 16 1 9 15
M  V30 END BOND
M  V30 END CTAB
M  END
>  <ID>
873
$$$$
Structure_874
Score 	 8.0, smilesprid 	smiles	 smilestrue 	smiles	 similartanimoto 	0	 similardice 	0

   15   16  0  0  0  0            999 V3000
M  V30 BEGIN CTAB
M  V30 COUNTS 15 16 0 0 0
M  V30 BEGIN ATOM
M  V30 1 C -2.5391 -0.1953 0.0000 0
M  V30 2 C -1.7578 -1.3672 0.0000 0
M  V30 3 C -1.7578 0.9766 0.0000 0
M  V30 4 C -0.3906 -0.7812 0.0000 0
M  V30 5 C -0.3906 0.5859 0.0000 0
M  V30 6 C 0.7812 1.1719 0.0000 0
M  V30 7 C 1.9531 -0.7812 0.0000 0
M  V30 8 N 0.7812 -1.5625 0.0000 0
M  V30 9 N 1.9531 0.3906 0.0000 0
M  V30 10 H -3.5156 -0.1953 0.0000 0
M  V30 11 H -2.1484 2.1484 0.0000 0
M  V30 12 H -1.9531 -2.3438 0.0000 0
M  V30 13 H 0.9766 2.3438 0.0000 0
M  V30 14 H 2.9297 -1.3672 0.0000 0
M  V30 15 H 2.7344 0.9766 0.0000 0
M  V30 END ATOM
M  V30 BEGIN BOND
M  V30 1 1 1 2
M  V30 2 1 1 3
M  V30 3 1 1 10
M  V30 4 3 2 4
M  V30 5 1 2 12
M  V30 6 2 3 5
M  V30 7 1 3 11
M  V30 8 2 4 5
M  V30 9 2 4 8
M  V30 10 1 5 6
M  V30 11 1 6 9
M  V30 12 1 6 13
M  V30 13 1 7 8
M  V30 14 1 7 9
M  V30 15 1 7 14
M  V30 16 1 9 15
M  V30 END BOND
M  V30 END CTAB
M  END
>  <ID>
874
$$$$
Structure_875
Score 	 8.0, smilesprid 	smiles	 smilestrue 	smiles	 similartanimoto 	0	 similardice 	0

   15   16  0  0  0  0            999 V3000
M  V30 BEGIN CTAB
M  V30 COUNTS 15 16 0 0 0
M  V30 BEGIN ATOM
M  V30 1 C -2.5391 -0.1953 0.0000 0
M  V30 2 C -1.7578 -1.3672 0.0000 0
M  V30 3 C -1.7578 0.9766 0.0000 0
M  V30 4 C -0.3906 -0.7812 0.0000 0
M  V30 5 C -0.3906 0.5859 0.0000 0
M  V30 6 C 0.7812 1.1719 0.0000 0
M  V30 7 C 1.9531 -0.7812 0.0000 0
M  V30 8 N 0.7812 -1.5625 0.0000 0
M  V30 9 N 1.9531 0.3906 0.0000 0
M  V30 10 H -3.5156 -0.1953 0.0000 0
M  V30 11 H -2.1484 2.1484 0.0000 0
M  V30 12 H -1.9531 -2.3438 0.0000 0
M  V30 13 H 0.9766 2.3438 0.0000 0
M  V30 14 H 2.9297 -1.3672 0.0000 0
M  V30 15 H 2.7344 0.9766 0.0000 0
M  V30 END ATOM
M  V30 BEGIN BOND
M  V30 1 2 1 2
M  V30 2 1 1 3
M  V30 3 1 1 10
M  V30 4 3 2 4
M  V30 5 1 2 12
M  V30 6 2 3 5
M  V30 7 1 3 11
M  V30 8 2 4 5
M  V30 9 2 4 8
M  V30 10 1 5 6
M  V30 11 1 6 9
M  V30 12 1 6 13
M  V30 13 1 7 8
M  V30 14 1 7 9
M  V30 15 1 7 14
M  V30 16 1 9 15
M  V30 END BOND
M  V30 END CTAB
M  END
>  <ID>
875
$$$$
Structure_876
Score 	 10.0, smilesprid 	smiles	 smilestrue 	smiles	 similartanimoto 	0	 similardice 	0

   15   16  0  0  0  0            999 V3000
M  V30 BEGIN CTAB
M  V30 COUNTS 15 16 0 0 0
M  V30 BEGIN ATOM
M  V30 1 C -2.5391 -0.1953 0.0000 0
M  V30 2 C -1.7578 -1.3672 0.0000 0
M  V30 3 C -1.7578 0.9766 0.0000 0
M  V30 4 C -0.3906 -0.7812 0.0000 0
M  V30 5 C -0.3906 0.5859 0.0000 0
M  V30 6 C 0.7812 1.1719 0.0000 0
M  V30 7 C 1.9531 -0.7812 0.0000 0
M  V30 8 N 0.7812 -1.5625 0.0000 0
M  V30 9 N 1.9531 0.3906 0.0000 0
M  V30 10 H -3.5156 -0.1953 0.0000 0
M  V30 11 H -2.1484 2.1484 0.0000 0
M  V30 12 H -1.9531 -2.3438 0.0000 0
M  V30 13 H 0.9766 2.3438 0.0000 0
M  V30 14 H 2.9297 -1.3672 0.0000 0
M  V30 15 H 2.7344 0.9766 0.0000 0
M  V30 END ATOM
M  V30 BEGIN BOND
M  V30 1 3 1 2
M  V30 2 1 1 3
M  V30 3 1 1 10
M  V30 4 3 2 4
M  V30 5 1 2 12
M  V30 6 2 3 5
M  V30 7 1 3 11
M  V30 8 2 4 5
M  V30 9 2 4 8
M  V30 10 1 5 6
M  V30 11 1 6 9
M  V30 12 1 6 13
M  V30 13 1 7 8
M  V30 14 1 7 9
M  V30 15 1 7 14
M  V30 16 1 9 15
M  V30 END BOND
M  V30 END CTAB
M  END
>  <ID>
876
$$$$
Structure_877
Score 	 8.0, smilesprid 	smiles	 smilestrue 	smiles	 similartanimoto 	0	 similardice 	0

   15   16  0  0  0  0            999 V3000
M  V30 BEGIN CTAB
M  V30 COUNTS 15 16 0 0 0
M  V30 BEGIN ATOM
M  V30 1 C -2.5391 -0.1953 0.0000 0
M  V30 2 C -1.7578 -1.3672 0.0000 0
M  V30 3 C -1.7578 0.9766 0.0000 0
M  V30 4 C -0.3906 -0.7812 0.0000 0
M  V30 5 C -0.3906 0.5859 0.0000 0
M  V30 6 C 0.7812 1.1719 0.0000 0
M  V30 7 C 1.9531 -0.7812 0.0000 0
M  V30 8 N 0.7812 -1.5625 0.0000 0
M  V30 9 N 1.9531 0.3906 0.0000 0
M  V30 10 H -3.5156 -0.1953 0.0000 0
M  V30 11 H -2.1484 2.1484 0.0000 0
M  V30 12 H -1.9531 -2.3438 0.0000 0
M  V30 13 H 0.9766 2.3438 0.0000 0
M  V30 14 H 2.9297 -1.3672 0.0000 0
M  V30 15 H 2.7344 0.9766 0.0000 0
M  V30 END ATOM
M  V30 BEGIN BOND
M  V30 1 1 1 2
M  V30 2 2 1 3
M  V30 3 1 1 10
M  V30 4 3 2 4
M  V30 5 1 2 12
M  V30 6 2 3 5
M  V30 7 1 3 11
M  V30 8 2 4 5
M  V30 9 2 4 8
M  V30 10 1 5 6
M  V30 11 1 6 9
M  V30 12 1 6 13
M  V30 13 1 7 8
M  V30 14 1 7 9
M  V30 15 1 7 14
M  V30 16 1 9 15
M  V30 END BOND
M  V30 END CTAB
M  END
>  <ID>
877
$$$$
Structure_878
Score 	 10.0, smilesprid 	smiles	 smilestrue 	smiles	 similartanimoto 	0	 similardice 	0

   15   16  0  0  0  0            999 V3000
M  V30 BEGIN CTAB
M  V30 COUNTS 15 16 0 0 0
M  V30 BEGIN ATOM
M  V30 1 C -2.5391 -0.1953 0.0000 0
M  V30 2 C -1.7578 -1.3672 0.0000 0
M  V30 3 C -1.7578 0.9766 0.0000 0
M  V30 4 C -0.3906 -0.7812 0.0000 0
M  V30 5 C -0.3906 0.5859 0.0000 0
M  V30 6 C 0.7812 1.1719 0.0000 0
M  V30 7 C 1.9531 -0.7812 0.0000 0
M  V30 8 N 0.7812 -1.5625 0.0000 0
M  V30 9 N 1.9531 0.3906 0.0000 0
M  V30 10 H -3.5156 -0.1953 0.0000 0
M  V30 11 H -2.1484 2.1484 0.0000 0
M  V30 12 H -1.9531 -2.3438 0.0000 0
M  V30 13 H 0.9766 2.3438 0.0000 0
M  V30 14 H 2.9297 -1.3672 0.0000 0
M  V30 15 H 2.7344 0.9766 0.0000 0
M  V30 END ATOM
M  V30 BEGIN BOND
M  V30 1 2 1 2
M  V30 2 2 1 3
M  V30 3 1 1 10
M  V30 4 3 2 4
M  V30 5 1 2 12
M  V30 6 2 3 5
M  V30 7 1 3 11
M  V30 8 2 4 5
M  V30 9 2 4 8
M  V30 10 1 5 6
M  V30 11 1 6 9
M  V30 12 1 6 13
M  V30 13 1 7 8
M  V30 14 1 7 9
M  V30 15 1 7 14
M  V30 16 1 9 15
M  V30 END BOND
M  V30 END CTAB
M  END
>  <ID>
878
$$$$
Structure_879
Score 	 12.0, smilesprid 	smiles	 smilestrue 	smiles	 similartanimoto 	0	 similardice 	0

   15   16  0  0  0  0            999 V3000
M  V30 BEGIN CTAB
M  V30 COUNTS 15 16 0 0 0
M  V30 BEGIN ATOM
M  V30 1 C -2.5391 -0.1953 0.0000 0
M  V30 2 C -1.7578 -1.3672 0.0000 0
M  V30 3 C -1.7578 0.9766 0.0000 0
M  V30 4 C -0.3906 -0.7812 0.0000 0
M  V30 5 C -0.3906 0.5859 0.0000 0
M  V30 6 C 0.7812 1.1719 0.0000 0
M  V30 7 C 1.9531 -0.7812 0.0000 0
M  V30 8 N 0.7812 -1.5625 0.0000 0
M  V30 9 N 1.9531 0.3906 0.0000 0
M  V30 10 H -3.5156 -0.1953 0.0000 0
M  V30 11 H -2.1484 2.1484 0.0000 0
M  V30 12 H -1.9531 -2.3438 0.0000 0
M  V30 13 H 0.9766 2.3438 0.0000 0
M  V30 14 H 2.9297 -1.3672 0.0000 0
M  V30 15 H 2.7344 0.9766 0.0000 0
M  V30 END ATOM
M  V30 BEGIN BOND
M  V30 1 3 1 2
M  V30 2 2 1 3
M  V30 3 1 1 10
M  V30 4 3 2 4
M  V30 5 1 2 12
M  V30 6 2 3 5
M  V30 7 1 3 11
M  V30 8 2 4 5
M  V30 9 2 4 8
M  V30 10 1 5 6
M  V30 11 1 6 9
M  V30 12 1 6 13
M  V30 13 1 7 8
M  V30 14 1 7 9
M  V30 15 1 7 14
M  V30 16 1 9 15
M  V30 END BOND
M  V30 END CTAB
M  END
>  <ID>
879
$$$$
Structure_880
Score 	 10.0, smilesprid 	smiles	 smilestrue 	smiles	 similartanimoto 	0	 similardice 	0

   15   16  0  0  0  0            999 V3000
M  V30 BEGIN CTAB
M  V30 COUNTS 15 16 0 0 0
M  V30 BEGIN ATOM
M  V30 1 C -2.5391 -0.1953 0.0000 0
M  V30 2 C -1.7578 -1.3672 0.0000 0
M  V30 3 C -1.7578 0.9766 0.0000 0
M  V30 4 C -0.3906 -0.7812 0.0000 0
M  V30 5 C -0.3906 0.5859 0.0000 0
M  V30 6 C 0.7812 1.1719 0.0000 0
M  V30 7 C 1.9531 -0.7812 0.0000 0
M  V30 8 N 0.7812 -1.5625 0.0000 0
M  V30 9 N 1.9531 0.3906 0.0000 0
M  V30 10 H -3.5156 -0.1953 0.0000 0
M  V30 11 H -2.1484 2.1484 0.0000 0
M  V30 12 H -1.9531 -2.3438 0.0000 0
M  V30 13 H 0.9766 2.3438 0.0000 0
M  V30 14 H 2.9297 -1.3672 0.0000 0
M  V30 15 H 2.7344 0.9766 0.0000 0
M  V30 END ATOM
M  V30 BEGIN BOND
M  V30 1 1 1 2
M  V30 2 3 1 3
M  V30 3 1 1 10
M  V30 4 3 2 4
M  V30 5 1 2 12
M  V30 6 2 3 5
M  V30 7 1 3 11
M  V30 8 2 4 5
M  V30 9 2 4 8
M  V30 10 1 5 6
M  V30 11 1 6 9
M  V30 12 1 6 13
M  V30 13 1 7 8
M  V30 14 1 7 9
M  V30 15 1 7 14
M  V30 16 1 9 15
M  V30 END BOND
M  V30 END CTAB
M  END
>  <ID>
880
$$$$
Structure_881
Score 	 12.0, smilesprid 	smiles	 smilestrue 	smiles	 similartanimoto 	0	 similardice 	0

   15   16  0  0  0  0            999 V3000
M  V30 BEGIN CTAB
M  V30 COUNTS 15 16 0 0 0
M  V30 BEGIN ATOM
M  V30 1 C -2.5391 -0.1953 0.0000 0
M  V30 2 C -1.7578 -1.3672 0.0000 0
M  V30 3 C -1.7578 0.9766 0.0000 0
M  V30 4 C -0.3906 -0.7812 0.0000 0
M  V30 5 C -0.3906 0.5859 0.0000 0
M  V30 6 C 0.7812 1.1719 0.0000 0
M  V30 7 C 1.9531 -0.7812 0.0000 0
M  V30 8 N 0.7812 -1.5625 0.0000 0
M  V30 9 N 1.9531 0.3906 0.0000 0
M  V30 10 H -3.5156 -0.1953 0.0000 0
M  V30 11 H -2.1484 2.1484 0.0000 0
M  V30 12 H -1.9531 -2.3438 0.0000 0
M  V30 13 H 0.9766 2.3438 0.0000 0
M  V30 14 H 2.9297 -1.3672 0.0000 0
M  V30 15 H 2.7344 0.9766 0.0000 0
M  V30 END ATOM
M  V30 BEGIN BOND
M  V30 1 2 1 2
M  V30 2 3 1 3
M  V30 3 1 1 10
M  V30 4 3 2 4
M  V30 5 1 2 12
M  V30 6 2 3 5
M  V30 7 1 3 11
M  V30 8 2 4 5
M  V30 9 2 4 8
M  V30 10 1 5 6
M  V30 11 1 6 9
M  V30 12 1 6 13
M  V30 13 1 7 8
M  V30 14 1 7 9
M  V30 15 1 7 14
M  V30 16 1 9 15
M  V30 END BOND
M  V30 END CTAB
M  END
>  <ID>
881
$$$$
Structure_882
Score 	 14.0, smilesprid 	smiles	 smilestrue 	smiles	 similartanimoto 	0	 similardice 	0

   15   16  0  0  0  0            999 V3000
M  V30 BEGIN CTAB
M  V30 COUNTS 15 16 0 0 0
M  V30 BEGIN ATOM
M  V30 1 C -2.5391 -0.1953 0.0000 0
M  V30 2 C -1.7578 -1.3672 0.0000 0
M  V30 3 C -1.7578 0.9766 0.0000 0
M  V30 4 C -0.3906 -0.7812 0.0000 0
M  V30 5 C -0.3906 0.5859 0.0000 0
M  V30 6 C 0.7812 1.1719 0.0000 0
M  V30 7 C 1.9531 -0.7812 0.0000 0
M  V30 8 N 0.7812 -1.5625 0.0000 0
M  V30 9 N 1.9531 0.3906 0.0000 0
M  V30 10 H -3.5156 -0.1953 0.0000 0
M  V30 11 H -2.1484 2.1484 0.0000 0
M  V30 12 H -1.9531 -2.3438 0.0000 0
M  V30 13 H 0.9766 2.3438 0.0000 0
M  V30 14 H 2.9297 -1.3672 0.0000 0
M  V30 15 H 2.7344 0.9766 0.0000 0
M  V30 END ATOM
M  V30 BEGIN BOND
M  V30 1 3 1 2
M  V30 2 3 1 3
M  V30 3 1 1 10
M  V30 4 3 2 4
M  V30 5 1 2 12
M  V30 6 2 3 5
M  V30 7 1 3 11
M  V30 8 2 4 5
M  V30 9 2 4 8
M  V30 10 1 5 6
M  V30 11 1 6 9
M  V30 12 1 6 13
M  V30 13 1 7 8
M  V30 14 1 7 9
M  V30 15 1 7 14
M  V30 16 1 9 15
M  V30 END BOND
M  V30 END CTAB
M  END
>  <ID>
882
$$$$
Structure_883
Score 	 10.0, smilesprid 	smiles	 smilestrue 	smiles	 similartanimoto 	0	 similardice 	0

   15   16  0  0  0  0            999 V3000
M  V30 BEGIN CTAB
M  V30 COUNTS 15 16 0 0 0
M  V30 BEGIN ATOM
M  V30 1 C -2.5391 -0.1953 0.0000 0
M  V30 2 C -1.7578 -1.3672 0.0000 0
M  V30 3 C -1.7578 0.9766 0.0000 0
M  V30 4 C -0.3906 -0.7812 0.0000 0
M  V30 5 C -0.3906 0.5859 0.0000 0
M  V30 6 C 0.7812 1.1719 0.0000 0
M  V30 7 C 1.9531 -0.7812 0.0000 0
M  V30 8 N 0.7812 -1.5625 0.0000 0
M  V30 9 N 1.9531 0.3906 0.0000 0
M  V30 10 H -3.5156 -0.1953 0.0000 0
M  V30 11 H -2.1484 2.1484 0.0000 0
M  V30 12 H -1.9531 -2.3438 0.0000 0
M  V30 13 H 0.9766 2.3438 0.0000 0
M  V30 14 H 2.9297 -1.3672 0.0000 0
M  V30 15 H 2.7344 0.9766 0.0000 0
M  V30 END ATOM
M  V30 BEGIN BOND
M  V30 1 1 1 2
M  V30 2 1 1 3
M  V30 3 1 1 10
M  V30 4 3 2 4
M  V30 5 1 2 12
M  V30 6 3 3 5
M  V30 7 1 3 11
M  V30 8 2 4 5
M  V30 9 2 4 8
M  V30 10 1 5 6
M  V30 11 1 6 9
M  V30 12 1 6 13
M  V30 13 1 7 8
M  V30 14 1 7 9
M  V30 15 1 7 14
M  V30 16 1 9 15
M  V30 END BOND
M  V30 END CTAB
M  END
>  <ID>
883
$$$$
Structure_884
Score 	 10.0, smilesprid 	smiles	 smilestrue 	smiles	 similartanimoto 	0	 similardice 	0

   15   16  0  0  0  0            999 V3000
M  V30 BEGIN CTAB
M  V30 COUNTS 15 16 0 0 0
M  V30 BEGIN ATOM
M  V30 1 C -2.5391 -0.1953 0.0000 0
M  V30 2 C -1.7578 -1.3672 0.0000 0
M  V30 3 C -1.7578 0.9766 0.0000 0
M  V30 4 C -0.3906 -0.7812 0.0000 0
M  V30 5 C -0.3906 0.5859 0.0000 0
M  V30 6 C 0.7812 1.1719 0.0000 0
M  V30 7 C 1.9531 -0.7812 0.0000 0
M  V30 8 N 0.7812 -1.5625 0.0000 0
M  V30 9 N 1.9531 0.3906 0.0000 0
M  V30 10 H -3.5156 -0.1953 0.0000 0
M  V30 11 H -2.1484 2.1484 0.0000 0
M  V30 12 H -1.9531 -2.3438 0.0000 0
M  V30 13 H 0.9766 2.3438 0.0000 0
M  V30 14 H 2.9297 -1.3672 0.0000 0
M  V30 15 H 2.7344 0.9766 0.0000 0
M  V30 END ATOM
M  V30 BEGIN BOND
M  V30 1 2 1 2
M  V30 2 1 1 3
M  V30 3 1 1 10
M  V30 4 3 2 4
M  V30 5 1 2 12
M  V30 6 3 3 5
M  V30 7 1 3 11
M  V30 8 2 4 5
M  V30 9 2 4 8
M  V30 10 1 5 6
M  V30 11 1 6 9
M  V30 12 1 6 13
M  V30 13 1 7 8
M  V30 14 1 7 9
M  V30 15 1 7 14
M  V30 16 1 9 15
M  V30 END BOND
M  V30 END CTAB
M  END
>  <ID>
884
$$$$
Structure_885
Score 	 12.0, smilesprid 	smiles	 smilestrue 	smiles	 similartanimoto 	0	 similardice 	0

   15   16  0  0  0  0            999 V3000
M  V30 BEGIN CTAB
M  V30 COUNTS 15 16 0 0 0
M  V30 BEGIN ATOM
M  V30 1 C -2.5391 -0.1953 0.0000 0
M  V30 2 C -1.7578 -1.3672 0.0000 0
M  V30 3 C -1.7578 0.9766 0.0000 0
M  V30 4 C -0.3906 -0.7812 0.0000 0
M  V30 5 C -0.3906 0.5859 0.0000 0
M  V30 6 C 0.7812 1.1719 0.0000 0
M  V30 7 C 1.9531 -0.7812 0.0000 0
M  V30 8 N 0.7812 -1.5625 0.0000 0
M  V30 9 N 1.9531 0.3906 0.0000 0
M  V30 10 H -3.5156 -0.1953 0.0000 0
M  V30 11 H -2.1484 2.1484 0.0000 0
M  V30 12 H -1.9531 -2.3438 0.0000 0
M  V30 13 H 0.9766 2.3438 0.0000 0
M  V30 14 H 2.9297 -1.3672 0.0000 0
M  V30 15 H 2.7344 0.9766 0.0000 0
M  V30 END ATOM
M  V30 BEGIN BOND
M  V30 1 3 1 2
M  V30 2 1 1 3
M  V30 3 1 1 10
M  V30 4 3 2 4
M  V30 5 1 2 12
M  V30 6 3 3 5
M  V30 7 1 3 11
M  V30 8 2 4 5
M  V30 9 2 4 8
M  V30 10 1 5 6
M  V30 11 1 6 9
M  V30 12 1 6 13
M  V30 13 1 7 8
M  V30 14 1 7 9
M  V30 15 1 7 14
M  V30 16 1 9 15
M  V30 END BOND
M  V30 END CTAB
M  END
>  <ID>
885
$$$$
Structure_886
Score 	 10.0, smilesprid 	smiles	 smilestrue 	smiles	 similartanimoto 	0	 similardice 	0

   15   16  0  0  0  0            999 V3000
M  V30 BEGIN CTAB
M  V30 COUNTS 15 16 0 0 0
M  V30 BEGIN ATOM
M  V30 1 C -2.5391 -0.1953 0.0000 0
M  V30 2 C -1.7578 -1.3672 0.0000 0
M  V30 3 C -1.7578 0.9766 0.0000 0
M  V30 4 C -0.3906 -0.7812 0.0000 0
M  V30 5 C -0.3906 0.5859 0.0000 0
M  V30 6 C 0.7812 1.1719 0.0000 0
M  V30 7 C 1.9531 -0.7812 0.0000 0
M  V30 8 N 0.7812 -1.5625 0.0000 0
M  V30 9 N 1.9531 0.3906 0.0000 0
M  V30 10 H -3.5156 -0.1953 0.0000 0
M  V30 11 H -2.1484 2.1484 0.0000 0
M  V30 12 H -1.9531 -2.3438 0.0000 0
M  V30 13 H 0.9766 2.3438 0.0000 0
M  V30 14 H 2.9297 -1.3672 0.0000 0
M  V30 15 H 2.7344 0.9766 0.0000 0
M  V30 END ATOM
M  V30 BEGIN BOND
M  V30 1 1 1 2
M  V30 2 2 1 3
M  V30 3 1 1 10
M  V30 4 3 2 4
M  V30 5 1 2 12
M  V30 6 3 3 5
M  V30 7 1 3 11
M  V30 8 2 4 5
M  V30 9 2 4 8
M  V30 10 1 5 6
M  V30 11 1 6 9
M  V30 12 1 6 13
M  V30 13 1 7 8
M  V30 14 1 7 9
M  V30 15 1 7 14
M  V30 16 1 9 15
M  V30 END BOND
M  V30 END CTAB
M  END
>  <ID>
886
$$$$
Structure_887
Score 	 12.0, smilesprid 	smiles	 smilestrue 	smiles	 similartanimoto 	0	 similardice 	0

   15   16  0  0  0  0            999 V3000
M  V30 BEGIN CTAB
M  V30 COUNTS 15 16 0 0 0
M  V30 BEGIN ATOM
M  V30 1 C -2.5391 -0.1953 0.0000 0
M  V30 2 C -1.7578 -1.3672 0.0000 0
M  V30 3 C -1.7578 0.9766 0.0000 0
M  V30 4 C -0.3906 -0.7812 0.0000 0
M  V30 5 C -0.3906 0.5859 0.0000 0
M  V30 6 C 0.7812 1.1719 0.0000 0
M  V30 7 C 1.9531 -0.7812 0.0000 0
M  V30 8 N 0.7812 -1.5625 0.0000 0
M  V30 9 N 1.9531 0.3906 0.0000 0
M  V30 10 H -3.5156 -0.1953 0.0000 0
M  V30 11 H -2.1484 2.1484 0.0000 0
M  V30 12 H -1.9531 -2.3438 0.0000 0
M  V30 13 H 0.9766 2.3438 0.0000 0
M  V30 14 H 2.9297 -1.3672 0.0000 0
M  V30 15 H 2.7344 0.9766 0.0000 0
M  V30 END ATOM
M  V30 BEGIN BOND
M  V30 1 2 1 2
M  V30 2 2 1 3
M  V30 3 1 1 10
M  V30 4 3 2 4
M  V30 5 1 2 12
M  V30 6 3 3 5
M  V30 7 1 3 11
M  V30 8 2 4 5
M  V30 9 2 4 8
M  V30 10 1 5 6
M  V30 11 1 6 9
M  V30 12 1 6 13
M  V30 13 1 7 8
M  V30 14 1 7 9
M  V30 15 1 7 14
M  V30 16 1 9 15
M  V30 END BOND
M  V30 END CTAB
M  END
>  <ID>
887
$$$$
Structure_888
Score 	 14.0, smilesprid 	smiles	 smilestrue 	smiles	 similartanimoto 	0	 similardice 	0

   15   16  0  0  0  0            999 V3000
M  V30 BEGIN CTAB
M  V30 COUNTS 15 16 0 0 0
M  V30 BEGIN ATOM
M  V30 1 C -2.5391 -0.1953 0.0000 0
M  V30 2 C -1.7578 -1.3672 0.0000 0
M  V30 3 C -1.7578 0.9766 0.0000 0
M  V30 4 C -0.3906 -0.7812 0.0000 0
M  V30 5 C -0.3906 0.5859 0.0000 0
M  V30 6 C 0.7812 1.1719 0.0000 0
M  V30 7 C 1.9531 -0.7812 0.0000 0
M  V30 8 N 0.7812 -1.5625 0.0000 0
M  V30 9 N 1.9531 0.3906 0.0000 0
M  V30 10 H -3.5156 -0.1953 0.0000 0
M  V30 11 H -2.1484 2.1484 0.0000 0
M  V30 12 H -1.9531 -2.3438 0.0000 0
M  V30 13 H 0.9766 2.3438 0.0000 0
M  V30 14 H 2.9297 -1.3672 0.0000 0
M  V30 15 H 2.7344 0.9766 0.0000 0
M  V30 END ATOM
M  V30 BEGIN BOND
M  V30 1 3 1 2
M  V30 2 2 1 3
M  V30 3 1 1 10
M  V30 4 3 2 4
M  V30 5 1 2 12
M  V30 6 3 3 5
M  V30 7 1 3 11
M  V30 8 2 4 5
M  V30 9 2 4 8
M  V30 10 1 5 6
M  V30 11 1 6 9
M  V30 12 1 6 13
M  V30 13 1 7 8
M  V30 14 1 7 9
M  V30 15 1 7 14
M  V30 16 1 9 15
M  V30 END BOND
M  V30 END CTAB
M  END
>  <ID>
888
$$$$
Structure_889
Score 	 12.0, smilesprid 	smiles	 smilestrue 	smiles	 similartanimoto 	0	 similardice 	0

   15   16  0  0  0  0            999 V3000
M  V30 BEGIN CTAB
M  V30 COUNTS 15 16 0 0 0
M  V30 BEGIN ATOM
M  V30 1 C -2.5391 -0.1953 0.0000 0
M  V30 2 C -1.7578 -1.3672 0.0000 0
M  V30 3 C -1.7578 0.9766 0.0000 0
M  V30 4 C -0.3906 -0.7812 0.0000 0
M  V30 5 C -0.3906 0.5859 0.0000 0
M  V30 6 C 0.7812 1.1719 0.0000 0
M  V30 7 C 1.9531 -0.7812 0.0000 0
M  V30 8 N 0.7812 -1.5625 0.0000 0
M  V30 9 N 1.9531 0.3906 0.0000 0
M  V30 10 H -3.5156 -0.1953 0.0000 0
M  V30 11 H -2.1484 2.1484 0.0000 0
M  V30 12 H -1.9531 -2.3438 0.0000 0
M  V30 13 H 0.9766 2.3438 0.0000 0
M  V30 14 H 2.9297 -1.3672 0.0000 0
M  V30 15 H 2.7344 0.9766 0.0000 0
M  V30 END ATOM
M  V30 BEGIN BOND
M  V30 1 1 1 2
M  V30 2 3 1 3
M  V30 3 1 1 10
M  V30 4 3 2 4
M  V30 5 1 2 12
M  V30 6 3 3 5
M  V30 7 1 3 11
M  V30 8 2 4 5
M  V30 9 2 4 8
M  V30 10 1 5 6
M  V30 11 1 6 9
M  V30 12 1 6 13
M  V30 13 1 7 8
M  V30 14 1 7 9
M  V30 15 1 7 14
M  V30 16 1 9 15
M  V30 END BOND
M  V30 END CTAB
M  END
>  <ID>
889
$$$$
Structure_890
Score 	 14.0, smilesprid 	smiles	 smilestrue 	smiles	 similartanimoto 	0	 similardice 	0

   15   16  0  0  0  0            999 V3000
M  V30 BEGIN CTAB
M  V30 COUNTS 15 16 0 0 0
M  V30 BEGIN ATOM
M  V30 1 C -2.5391 -0.1953 0.0000 0
M  V30 2 C -1.7578 -1.3672 0.0000 0
M  V30 3 C -1.7578 0.9766 0.0000 0
M  V30 4 C -0.3906 -0.7812 0.0000 0
M  V30 5 C -0.3906 0.5859 0.0000 0
M  V30 6 C 0.7812 1.1719 0.0000 0
M  V30 7 C 1.9531 -0.7812 0.0000 0
M  V30 8 N 0.7812 -1.5625 0.0000 0
M  V30 9 N 1.9531 0.3906 0.0000 0
M  V30 10 H -3.5156 -0.1953 0.0000 0
M  V30 11 H -2.1484 2.1484 0.0000 0
M  V30 12 H -1.9531 -2.3438 0.0000 0
M  V30 13 H 0.9766 2.3438 0.0000 0
M  V30 14 H 2.9297 -1.3672 0.0000 0
M  V30 15 H 2.7344 0.9766 0.0000 0
M  V30 END ATOM
M  V30 BEGIN BOND
M  V30 1 2 1 2
M  V30 2 3 1 3
M  V30 3 1 1 10
M  V30 4 3 2 4
M  V30 5 1 2 12
M  V30 6 3 3 5
M  V30 7 1 3 11
M  V30 8 2 4 5
M  V30 9 2 4 8
M  V30 10 1 5 6
M  V30 11 1 6 9
M  V30 12 1 6 13
M  V30 13 1 7 8
M  V30 14 1 7 9
M  V30 15 1 7 14
M  V30 16 1 9 15
M  V30 END BOND
M  V30 END CTAB
M  END
>  <ID>
890
$$$$
Structure_891
Score 	 16.0, smilesprid 	smiles	 smilestrue 	smiles	 similartanimoto 	0	 similardice 	0

   15   16  0  0  0  0            999 V3000
M  V30 BEGIN CTAB
M  V30 COUNTS 15 16 0 0 0
M  V30 BEGIN ATOM
M  V30 1 C -2.5391 -0.1953 0.0000 0
M  V30 2 C -1.7578 -1.3672 0.0000 0
M  V30 3 C -1.7578 0.9766 0.0000 0
M  V30 4 C -0.3906 -0.7812 0.0000 0
M  V30 5 C -0.3906 0.5859 0.0000 0
M  V30 6 C 0.7812 1.1719 0.0000 0
M  V30 7 C 1.9531 -0.7812 0.0000 0
M  V30 8 N 0.7812 -1.5625 0.0000 0
M  V30 9 N 1.9531 0.3906 0.0000 0
M  V30 10 H -3.5156 -0.1953 0.0000 0
M  V30 11 H -2.1484 2.1484 0.0000 0
M  V30 12 H -1.9531 -2.3438 0.0000 0
M  V30 13 H 0.9766 2.3438 0.0000 0
M  V30 14 H 2.9297 -1.3672 0.0000 0
M  V30 15 H 2.7344 0.9766 0.0000 0
M  V30 END ATOM
M  V30 BEGIN BOND
M  V30 1 3 1 2
M  V30 2 3 1 3
M  V30 3 1 1 10
M  V30 4 3 2 4
M  V30 5 1 2 12
M  V30 6 3 3 5
M  V30 7 1 3 11
M  V30 8 2 4 5
M  V30 9 2 4 8
M  V30 10 1 5 6
M  V30 11 1 6 9
M  V30 12 1 6 13
M  V30 13 1 7 8
M  V30 14 1 7 9
M  V30 15 1 7 14
M  V30 16 1 9 15
M  V30 END BOND
M  V30 END CTAB
M  END
>  <ID>
891
$$$$
Structure_892
Score 	 8.0, smilesprid 	smiles	 smilestrue 	smiles	 similartanimoto 	0	 similardice 	0

   15   16  0  0  0  0            999 V3000
M  V30 BEGIN CTAB
M  V30 COUNTS 15 16 0 0 0
M  V30 BEGIN ATOM
M  V30 1 C -2.5391 -0.1953 0.0000 0
M  V30 2 C -1.7578 -1.3672 0.0000 0
M  V30 3 C -1.7578 0.9766 0.0000 0
M  V30 4 C -0.3906 -0.7812 0.0000 0
M  V30 5 C -0.3906 0.5859 0.0000 0
M  V30 6 C 0.7812 1.1719 0.0000 0
M  V30 7 C 1.9531 -0.7812 0.0000 0
M  V30 8 N 0.7812 -1.5625 0.0000 0
M  V30 9 N 1.9531 0.3906 0.0000 0
M  V30 10 H -3.5156 -0.1953 0.0000 0
M  V30 11 H -2.1484 2.1484 0.0000 0
M  V30 12 H -1.9531 -2.3438 0.0000 0
M  V30 13 H 0.9766 2.3438 0.0000 0
M  V30 14 H 2.9297 -1.3672 0.0000 0
M  V30 15 H 2.7344 0.9766 0.0000 0
M  V30 END ATOM
M  V30 BEGIN BOND
M  V30 1 1 1 2
M  V30 2 1 1 3
M  V30 3 1 1 10
M  V30 4 1 2 4
M  V30 5 1 2 12
M  V30 6 1 3 5
M  V30 7 1 3 11
M  V30 8 3 4 5
M  V30 9 2 4 8
M  V30 10 1 5 6
M  V30 11 1 6 9
M  V30 12 1 6 13
M  V30 13 1 7 8
M  V30 14 1 7 9
M  V30 15 1 7 14
M  V30 16 1 9 15
M  V30 END BOND
M  V30 END CTAB
M  END
>  <ID>
892
$$$$
Structure_893
Score 	 6.0, smilesprid 	smiles	 smilestrue 	smiles	 similartanimoto 	0	 similardice 	0

   15   16  0  0  0  0            999 V3000
M  V30 BEGIN CTAB
M  V30 COUNTS 15 16 0 0 0
M  V30 BEGIN ATOM
M  V30 1 C -2.5391 -0.1953 0.0000 0
M  V30 2 C -1.7578 -1.3672 0.0000 0
M  V30 3 C -1.7578 0.9766 0.0000 0
M  V30 4 C -0.3906 -0.7812 0.0000 0
M  V30 5 C -0.3906 0.5859 0.0000 0
M  V30 6 C 0.7812 1.1719 0.0000 0
M  V30 7 C 1.9531 -0.7812 0.0000 0
M  V30 8 N 0.7812 -1.5625 0.0000 0
M  V30 9 N 1.9531 0.3906 0.0000 0
M  V30 10 H -3.5156 -0.1953 0.0000 0
M  V30 11 H -2.1484 2.1484 0.0000 0
M  V30 12 H -1.9531 -2.3438 0.0000 0
M  V30 13 H 0.9766 2.3438 0.0000 0
M  V30 14 H 2.9297 -1.3672 0.0000 0
M  V30 15 H 2.7344 0.9766 0.0000 0
M  V30 END ATOM
M  V30 BEGIN BOND
M  V30 1 2 1 2
M  V30 2 1 1 3
M  V30 3 1 1 10
M  V30 4 1 2 4
M  V30 5 1 2 12
M  V30 6 1 3 5
M  V30 7 1 3 11
M  V30 8 3 4 5
M  V30 9 2 4 8
M  V30 10 1 5 6
M  V30 11 1 6 9
M  V30 12 1 6 13
M  V30 13 1 7 8
M  V30 14 1 7 9
M  V30 15 1 7 14
M  V30 16 1 9 15
M  V30 END BOND
M  V30 END CTAB
M  END
>  <ID>
893
$$$$
Structure_894
Score 	 8.0, smilesprid 	smiles	 smilestrue 	smiles	 similartanimoto 	0	 similardice 	0

   15   16  0  0  0  0            999 V3000
M  V30 BEGIN CTAB
M  V30 COUNTS 15 16 0 0 0
M  V30 BEGIN ATOM
M  V30 1 C -2.5391 -0.1953 0.0000 0
M  V30 2 C -1.7578 -1.3672 0.0000 0
M  V30 3 C -1.7578 0.9766 0.0000 0
M  V30 4 C -0.3906 -0.7812 0.0000 0
M  V30 5 C -0.3906 0.5859 0.0000 0
M  V30 6 C 0.7812 1.1719 0.0000 0
M  V30 7 C 1.9531 -0.7812 0.0000 0
M  V30 8 N 0.7812 -1.5625 0.0000 0
M  V30 9 N 1.9531 0.3906 0.0000 0
M  V30 10 H -3.5156 -0.1953 0.0000 0
M  V30 11 H -2.1484 2.1484 0.0000 0
M  V30 12 H -1.9531 -2.3438 0.0000 0
M  V30 13 H 0.9766 2.3438 0.0000 0
M  V30 14 H 2.9297 -1.3672 0.0000 0
M  V30 15 H 2.7344 0.9766 0.0000 0
M  V30 END ATOM
M  V30 BEGIN BOND
M  V30 1 3 1 2
M  V30 2 1 1 3
M  V30 3 1 1 10
M  V30 4 1 2 4
M  V30 5 1 2 12
M  V30 6 1 3 5
M  V30 7 1 3 11
M  V30 8 3 4 5
M  V30 9 2 4 8
M  V30 10 1 5 6
M  V30 11 1 6 9
M  V30 12 1 6 13
M  V30 13 1 7 8
M  V30 14 1 7 9
M  V30 15 1 7 14
M  V30 16 1 9 15
M  V30 END BOND
M  V30 END CTAB
M  END
>  <ID>
894
$$$$
Structure_895
Score 	 6.0, smilesprid 	smiles	 smilestrue 	smiles	 similartanimoto 	0	 similardice 	0

   15   16  0  0  0  0            999 V3000
M  V30 BEGIN CTAB
M  V30 COUNTS 15 16 0 0 0
M  V30 BEGIN ATOM
M  V30 1 C -2.5391 -0.1953 0.0000 0
M  V30 2 C -1.7578 -1.3672 0.0000 0
M  V30 3 C -1.7578 0.9766 0.0000 0
M  V30 4 C -0.3906 -0.7812 0.0000 0
M  V30 5 C -0.3906 0.5859 0.0000 0
M  V30 6 C 0.7812 1.1719 0.0000 0
M  V30 7 C 1.9531 -0.7812 0.0000 0
M  V30 8 N 0.7812 -1.5625 0.0000 0
M  V30 9 N 1.9531 0.3906 0.0000 0
M  V30 10 H -3.5156 -0.1953 0.0000 0
M  V30 11 H -2.1484 2.1484 0.0000 0
M  V30 12 H -1.9531 -2.3438 0.0000 0
M  V30 13 H 0.9766 2.3438 0.0000 0
M  V30 14 H 2.9297 -1.3672 0.0000 0
M  V30 15 H 2.7344 0.9766 0.0000 0
M  V30 END ATOM
M  V30 BEGIN BOND
M  V30 1 1 1 2
M  V30 2 2 1 3
M  V30 3 1 1 10
M  V30 4 1 2 4
M  V30 5 1 2 12
M  V30 6 1 3 5
M  V30 7 1 3 11
M  V30 8 3 4 5
M  V30 9 2 4 8
M  V30 10 1 5 6
M  V30 11 1 6 9
M  V30 12 1 6 13
M  V30 13 1 7 8
M  V30 14 1 7 9
M  V30 15 1 7 14
M  V30 16 1 9 15
M  V30 END BOND
M  V30 END CTAB
M  END
>  <ID>
895
$$$$
Structure_896
Score 	 6.0, smilesprid 	smiles	 smilestrue 	smiles	 similartanimoto 	0	 similardice 	0

   15   16  0  0  0  0            999 V3000
M  V30 BEGIN CTAB
M  V30 COUNTS 15 16 0 0 0
M  V30 BEGIN ATOM
M  V30 1 C -2.5391 -0.1953 0.0000 0
M  V30 2 C -1.7578 -1.3672 0.0000 0
M  V30 3 C -1.7578 0.9766 0.0000 0
M  V30 4 C -0.3906 -0.7812 0.0000 0
M  V30 5 C -0.3906 0.5859 0.0000 0
M  V30 6 C 0.7812 1.1719 0.0000 0
M  V30 7 C 1.9531 -0.7812 0.0000 0
M  V30 8 N 0.7812 -1.5625 0.0000 0
M  V30 9 N 1.9531 0.3906 0.0000 0
M  V30 10 H -3.5156 -0.1953 0.0000 0
M  V30 11 H -2.1484 2.1484 0.0000 0
M  V30 12 H -1.9531 -2.3438 0.0000 0
M  V30 13 H 0.9766 2.3438 0.0000 0
M  V30 14 H 2.9297 -1.3672 0.0000 0
M  V30 15 H 2.7344 0.9766 0.0000 0
M  V30 END ATOM
M  V30 BEGIN BOND
M  V30 1 2 1 2
M  V30 2 2 1 3
M  V30 3 1 1 10
M  V30 4 1 2 4
M  V30 5 1 2 12
M  V30 6 1 3 5
M  V30 7 1 3 11
M  V30 8 3 4 5
M  V30 9 2 4 8
M  V30 10 1 5 6
M  V30 11 1 6 9
M  V30 12 1 6 13
M  V30 13 1 7 8
M  V30 14 1 7 9
M  V30 15 1 7 14
M  V30 16 1 9 15
M  V30 END BOND
M  V30 END CTAB
M  END
>  <ID>
896
$$$$
Structure_897
Score 	 8.0, smilesprid 	smiles	 smilestrue 	smiles	 similartanimoto 	0	 similardice 	0

   15   16  0  0  0  0            999 V3000
M  V30 BEGIN CTAB
M  V30 COUNTS 15 16 0 0 0
M  V30 BEGIN ATOM
M  V30 1 C -2.5391 -0.1953 0.0000 0
M  V30 2 C -1.7578 -1.3672 0.0000 0
M  V30 3 C -1.7578 0.9766 0.0000 0
M  V30 4 C -0.3906 -0.7812 0.0000 0
M  V30 5 C -0.3906 0.5859 0.0000 0
M  V30 6 C 0.7812 1.1719 0.0000 0
M  V30 7 C 1.9531 -0.7812 0.0000 0
M  V30 8 N 0.7812 -1.5625 0.0000 0
M  V30 9 N 1.9531 0.3906 0.0000 0
M  V30 10 H -3.5156 -0.1953 0.0000 0
M  V30 11 H -2.1484 2.1484 0.0000 0
M  V30 12 H -1.9531 -2.3438 0.0000 0
M  V30 13 H 0.9766 2.3438 0.0000 0
M  V30 14 H 2.9297 -1.3672 0.0000 0
M  V30 15 H 2.7344 0.9766 0.0000 0
M  V30 END ATOM
M  V30 BEGIN BOND
M  V30 1 3 1 2
M  V30 2 2 1 3
M  V30 3 1 1 10
M  V30 4 1 2 4
M  V30 5 1 2 12
M  V30 6 1 3 5
M  V30 7 1 3 11
M  V30 8 3 4 5
M  V30 9 2 4 8
M  V30 10 1 5 6
M  V30 11 1 6 9
M  V30 12 1 6 13
M  V30 13 1 7 8
M  V30 14 1 7 9
M  V30 15 1 7 14
M  V30 16 1 9 15
M  V30 END BOND
M  V30 END CTAB
M  END
>  <ID>
897
$$$$
Structure_898
Score 	 8.0, smilesprid 	smiles	 smilestrue 	smiles	 similartanimoto 	0	 similardice 	0

   15   16  0  0  0  0            999 V3000
M  V30 BEGIN CTAB
M  V30 COUNTS 15 16 0 0 0
M  V30 BEGIN ATOM
M  V30 1 C -2.5391 -0.1953 0.0000 0
M  V30 2 C -1.7578 -1.3672 0.0000 0
M  V30 3 C -1.7578 0.9766 0.0000 0
M  V30 4 C -0.3906 -0.7812 0.0000 0
M  V30 5 C -0.3906 0.5859 0.0000 0
M  V30 6 C 0.7812 1.1719 0.0000 0
M  V30 7 C 1.9531 -0.7812 0.0000 0
M  V30 8 N 0.7812 -1.5625 0.0000 0
M  V30 9 N 1.9531 0.3906 0.0000 0
M  V30 10 H -3.5156 -0.1953 0.0000 0
M  V30 11 H -2.1484 2.1484 0.0000 0
M  V30 12 H -1.9531 -2.3438 0.0000 0
M  V30 13 H 0.9766 2.3438 0.0000 0
M  V30 14 H 2.9297 -1.3672 0.0000 0
M  V30 15 H 2.7344 0.9766 0.0000 0
M  V30 END ATOM
M  V30 BEGIN BOND
M  V30 1 1 1 2
M  V30 2 3 1 3
M  V30 3 1 1 10
M  V30 4 1 2 4
M  V30 5 1 2 12
M  V30 6 1 3 5
M  V30 7 1 3 11
M  V30 8 3 4 5
M  V30 9 2 4 8
M  V30 10 1 5 6
M  V30 11 1 6 9
M  V30 12 1 6 13
M  V30 13 1 7 8
M  V30 14 1 7 9
M  V30 15 1 7 14
M  V30 16 1 9 15
M  V30 END BOND
M  V30 END CTAB
M  END
>  <ID>
898
$$$$
Structure_899
Score 	 8.0, smilesprid 	smiles	 smilestrue 	smiles	 similartanimoto 	0	 similardice 	0

   15   16  0  0  0  0            999 V3000
M  V30 BEGIN CTAB
M  V30 COUNTS 15 16 0 0 0
M  V30 BEGIN ATOM
M  V30 1 C -2.5391 -0.1953 0.0000 0
M  V30 2 C -1.7578 -1.3672 0.0000 0
M  V30 3 C -1.7578 0.9766 0.0000 0
M  V30 4 C -0.3906 -0.7812 0.0000 0
M  V30 5 C -0.3906 0.5859 0.0000 0
M  V30 6 C 0.7812 1.1719 0.0000 0
M  V30 7 C 1.9531 -0.7812 0.0000 0
M  V30 8 N 0.7812 -1.5625 0.0000 0
M  V30 9 N 1.9531 0.3906 0.0000 0
M  V30 10 H -3.5156 -0.1953 0.0000 0
M  V30 11 H -2.1484 2.1484 0.0000 0
M  V30 12 H -1.9531 -2.3438 0.0000 0
M  V30 13 H 0.9766 2.3438 0.0000 0
M  V30 14 H 2.9297 -1.3672 0.0000 0
M  V30 15 H 2.7344 0.9766 0.0000 0
M  V30 END ATOM
M  V30 BEGIN BOND
M  V30 1 2 1 2
M  V30 2 3 1 3
M  V30 3 1 1 10
M  V30 4 1 2 4
M  V30 5 1 2 12
M  V30 6 1 3 5
M  V30 7 1 3 11
M  V30 8 3 4 5
M  V30 9 2 4 8
M  V30 10 1 5 6
M  V30 11 1 6 9
M  V30 12 1 6 13
M  V30 13 1 7 8
M  V30 14 1 7 9
M  V30 15 1 7 14
M  V30 16 1 9 15
M  V30 END BOND
M  V30 END CTAB
M  END
>  <ID>
899
$$$$
Structure_900
Score 	 10.0, smilesprid 	smiles	 smilestrue 	smiles	 similartanimoto 	0	 similardice 	0

   15   16  0  0  0  0            999 V3000
M  V30 BEGIN CTAB
M  V30 COUNTS 15 16 0 0 0
M  V30 BEGIN ATOM
M  V30 1 C -2.5391 -0.1953 0.0000 0
M  V30 2 C -1.7578 -1.3672 0.0000 0
M  V30 3 C -1.7578 0.9766 0.0000 0
M  V30 4 C -0.3906 -0.7812 0.0000 0
M  V30 5 C -0.3906 0.5859 0.0000 0
M  V30 6 C 0.7812 1.1719 0.0000 0
M  V30 7 C 1.9531 -0.7812 0.0000 0
M  V30 8 N 0.7812 -1.5625 0.0000 0
M  V30 9 N 1.9531 0.3906 0.0000 0
M  V30 10 H -3.5156 -0.1953 0.0000 0
M  V30 11 H -2.1484 2.1484 0.0000 0
M  V30 12 H -1.9531 -2.3438 0.0000 0
M  V30 13 H 0.9766 2.3438 0.0000 0
M  V30 14 H 2.9297 -1.3672 0.0000 0
M  V30 15 H 2.7344 0.9766 0.0000 0
M  V30 END ATOM
M  V30 BEGIN BOND
M  V30 1 3 1 2
M  V30 2 3 1 3
M  V30 3 1 1 10
M  V30 4 1 2 4
M  V30 5 1 2 12
M  V30 6 1 3 5
M  V30 7 1 3 11
M  V30 8 3 4 5
M  V30 9 2 4 8
M  V30 10 1 5 6
M  V30 11 1 6 9
M  V30 12 1 6 13
M  V30 13 1 7 8
M  V30 14 1 7 9
M  V30 15 1 7 14
M  V30 16 1 9 15
M  V30 END BOND
M  V30 END CTAB
M  END
>  <ID>
900
$$$$
Structure_901
Score 	 8.0, smilesprid 	smiles	 smilestrue 	smiles	 similartanimoto 	0	 similardice 	0

   15   16  0  0  0  0            999 V3000
M  V30 BEGIN CTAB
M  V30 COUNTS 15 16 0 0 0
M  V30 BEGIN ATOM
M  V30 1 C -2.5391 -0.1953 0.0000 0
M  V30 2 C -1.7578 -1.3672 0.0000 0
M  V30 3 C -1.7578 0.9766 0.0000 0
M  V30 4 C -0.3906 -0.7812 0.0000 0
M  V30 5 C -0.3906 0.5859 0.0000 0
M  V30 6 C 0.7812 1.1719 0.0000 0
M  V30 7 C 1.9531 -0.7812 0.0000 0
M  V30 8 N 0.7812 -1.5625 0.0000 0
M  V30 9 N 1.9531 0.3906 0.0000 0
M  V30 10 H -3.5156 -0.1953 0.0000 0
M  V30 11 H -2.1484 2.1484 0.0000 0
M  V30 12 H -1.9531 -2.3438 0.0000 0
M  V30 13 H 0.9766 2.3438 0.0000 0
M  V30 14 H 2.9297 -1.3672 0.0000 0
M  V30 15 H 2.7344 0.9766 0.0000 0
M  V30 END ATOM
M  V30 BEGIN BOND
M  V30 1 1 1 2
M  V30 2 1 1 3
M  V30 3 1 1 10
M  V30 4 1 2 4
M  V30 5 1 2 12
M  V30 6 2 3 5
M  V30 7 1 3 11
M  V30 8 3 4 5
M  V30 9 2 4 8
M  V30 10 1 5 6
M  V30 11 1 6 9
M  V30 12 1 6 13
M  V30 13 1 7 8
M  V30 14 1 7 9
M  V30 15 1 7 14
M  V30 16 1 9 15
M  V30 END BOND
M  V30 END CTAB
M  END
>  <ID>
901
$$$$
Structure_902
Score 	 6.0, smilesprid 	smiles	 smilestrue 	smiles	 similartanimoto 	0	 similardice 	0

   15   16  0  0  0  0            999 V3000
M  V30 BEGIN CTAB
M  V30 COUNTS 15 16 0 0 0
M  V30 BEGIN ATOM
M  V30 1 C -2.5391 -0.1953 0.0000 0
M  V30 2 C -1.7578 -1.3672 0.0000 0
M  V30 3 C -1.7578 0.9766 0.0000 0
M  V30 4 C -0.3906 -0.7812 0.0000 0
M  V30 5 C -0.3906 0.5859 0.0000 0
M  V30 6 C 0.7812 1.1719 0.0000 0
M  V30 7 C 1.9531 -0.7812 0.0000 0
M  V30 8 N 0.7812 -1.5625 0.0000 0
M  V30 9 N 1.9531 0.3906 0.0000 0
M  V30 10 H -3.5156 -0.1953 0.0000 0
M  V30 11 H -2.1484 2.1484 0.0000 0
M  V30 12 H -1.9531 -2.3438 0.0000 0
M  V30 13 H 0.9766 2.3438 0.0000 0
M  V30 14 H 2.9297 -1.3672 0.0000 0
M  V30 15 H 2.7344 0.9766 0.0000 0
M  V30 END ATOM
M  V30 BEGIN BOND
M  V30 1 2 1 2
M  V30 2 1 1 3
M  V30 3 1 1 10
M  V30 4 1 2 4
M  V30 5 1 2 12
M  V30 6 2 3 5
M  V30 7 1 3 11
M  V30 8 3 4 5
M  V30 9 2 4 8
M  V30 10 1 5 6
M  V30 11 1 6 9
M  V30 12 1 6 13
M  V30 13 1 7 8
M  V30 14 1 7 9
M  V30 15 1 7 14
M  V30 16 1 9 15
M  V30 END BOND
M  V30 END CTAB
M  END
>  <ID>
902
$$$$
Structure_903
Score 	 8.0, smilesprid 	smiles	 smilestrue 	smiles	 similartanimoto 	0	 similardice 	0

   15   16  0  0  0  0            999 V3000
M  V30 BEGIN CTAB
M  V30 COUNTS 15 16 0 0 0
M  V30 BEGIN ATOM
M  V30 1 C -2.5391 -0.1953 0.0000 0
M  V30 2 C -1.7578 -1.3672 0.0000 0
M  V30 3 C -1.7578 0.9766 0.0000 0
M  V30 4 C -0.3906 -0.7812 0.0000 0
M  V30 5 C -0.3906 0.5859 0.0000 0
M  V30 6 C 0.7812 1.1719 0.0000 0
M  V30 7 C 1.9531 -0.7812 0.0000 0
M  V30 8 N 0.7812 -1.5625 0.0000 0
M  V30 9 N 1.9531 0.3906 0.0000 0
M  V30 10 H -3.5156 -0.1953 0.0000 0
M  V30 11 H -2.1484 2.1484 0.0000 0
M  V30 12 H -1.9531 -2.3438 0.0000 0
M  V30 13 H 0.9766 2.3438 0.0000 0
M  V30 14 H 2.9297 -1.3672 0.0000 0
M  V30 15 H 2.7344 0.9766 0.0000 0
M  V30 END ATOM
M  V30 BEGIN BOND
M  V30 1 3 1 2
M  V30 2 1 1 3
M  V30 3 1 1 10
M  V30 4 1 2 4
M  V30 5 1 2 12
M  V30 6 2 3 5
M  V30 7 1 3 11
M  V30 8 3 4 5
M  V30 9 2 4 8
M  V30 10 1 5 6
M  V30 11 1 6 9
M  V30 12 1 6 13
M  V30 13 1 7 8
M  V30 14 1 7 9
M  V30 15 1 7 14
M  V30 16 1 9 15
M  V30 END BOND
M  V30 END CTAB
M  END
>  <ID>
903
$$$$
Structure_904
Score 	 8.0, smilesprid 	smiles	 smilestrue 	smiles	 similartanimoto 	0	 similardice 	0

   15   16  0  0  0  0            999 V3000
M  V30 BEGIN CTAB
M  V30 COUNTS 15 16 0 0 0
M  V30 BEGIN ATOM
M  V30 1 C -2.5391 -0.1953 0.0000 0
M  V30 2 C -1.7578 -1.3672 0.0000 0
M  V30 3 C -1.7578 0.9766 0.0000 0
M  V30 4 C -0.3906 -0.7812 0.0000 0
M  V30 5 C -0.3906 0.5859 0.0000 0
M  V30 6 C 0.7812 1.1719 0.0000 0
M  V30 7 C 1.9531 -0.7812 0.0000 0
M  V30 8 N 0.7812 -1.5625 0.0000 0
M  V30 9 N 1.9531 0.3906 0.0000 0
M  V30 10 H -3.5156 -0.1953 0.0000 0
M  V30 11 H -2.1484 2.1484 0.0000 0
M  V30 12 H -1.9531 -2.3438 0.0000 0
M  V30 13 H 0.9766 2.3438 0.0000 0
M  V30 14 H 2.9297 -1.3672 0.0000 0
M  V30 15 H 2.7344 0.9766 0.0000 0
M  V30 END ATOM
M  V30 BEGIN BOND
M  V30 1 1 1 2
M  V30 2 2 1 3
M  V30 3 1 1 10
M  V30 4 1 2 4
M  V30 5 1 2 12
M  V30 6 2 3 5
M  V30 7 1 3 11
M  V30 8 3 4 5
M  V30 9 2 4 8
M  V30 10 1 5 6
M  V30 11 1 6 9
M  V30 12 1 6 13
M  V30 13 1 7 8
M  V30 14 1 7 9
M  V30 15 1 7 14
M  V30 16 1 9 15
M  V30 END BOND
M  V30 END CTAB
M  END
>  <ID>
904
$$$$
Structure_905
Score 	 8.0, smilesprid 	smiles	 smilestrue 	smiles	 similartanimoto 	0	 similardice 	0

   15   16  0  0  0  0            999 V3000
M  V30 BEGIN CTAB
M  V30 COUNTS 15 16 0 0 0
M  V30 BEGIN ATOM
M  V30 1 C -2.5391 -0.1953 0.0000 0
M  V30 2 C -1.7578 -1.3672 0.0000 0
M  V30 3 C -1.7578 0.9766 0.0000 0
M  V30 4 C -0.3906 -0.7812 0.0000 0
M  V30 5 C -0.3906 0.5859 0.0000 0
M  V30 6 C 0.7812 1.1719 0.0000 0
M  V30 7 C 1.9531 -0.7812 0.0000 0
M  V30 8 N 0.7812 -1.5625 0.0000 0
M  V30 9 N 1.9531 0.3906 0.0000 0
M  V30 10 H -3.5156 -0.1953 0.0000 0
M  V30 11 H -2.1484 2.1484 0.0000 0
M  V30 12 H -1.9531 -2.3438 0.0000 0
M  V30 13 H 0.9766 2.3438 0.0000 0
M  V30 14 H 2.9297 -1.3672 0.0000 0
M  V30 15 H 2.7344 0.9766 0.0000 0
M  V30 END ATOM
M  V30 BEGIN BOND
M  V30 1 2 1 2
M  V30 2 2 1 3
M  V30 3 1 1 10
M  V30 4 1 2 4
M  V30 5 1 2 12
M  V30 6 2 3 5
M  V30 7 1 3 11
M  V30 8 3 4 5
M  V30 9 2 4 8
M  V30 10 1 5 6
M  V30 11 1 6 9
M  V30 12 1 6 13
M  V30 13 1 7 8
M  V30 14 1 7 9
M  V30 15 1 7 14
M  V30 16 1 9 15
M  V30 END BOND
M  V30 END CTAB
M  END
>  <ID>
905
$$$$
Structure_906
Score 	 10.0, smilesprid 	smiles	 smilestrue 	smiles	 similartanimoto 	0	 similardice 	0

   15   16  0  0  0  0            999 V3000
M  V30 BEGIN CTAB
M  V30 COUNTS 15 16 0 0 0
M  V30 BEGIN ATOM
M  V30 1 C -2.5391 -0.1953 0.0000 0
M  V30 2 C -1.7578 -1.3672 0.0000 0
M  V30 3 C -1.7578 0.9766 0.0000 0
M  V30 4 C -0.3906 -0.7812 0.0000 0
M  V30 5 C -0.3906 0.5859 0.0000 0
M  V30 6 C 0.7812 1.1719 0.0000 0
M  V30 7 C 1.9531 -0.7812 0.0000 0
M  V30 8 N 0.7812 -1.5625 0.0000 0
M  V30 9 N 1.9531 0.3906 0.0000 0
M  V30 10 H -3.5156 -0.1953 0.0000 0
M  V30 11 H -2.1484 2.1484 0.0000 0
M  V30 12 H -1.9531 -2.3438 0.0000 0
M  V30 13 H 0.9766 2.3438 0.0000 0
M  V30 14 H 2.9297 -1.3672 0.0000 0
M  V30 15 H 2.7344 0.9766 0.0000 0
M  V30 END ATOM
M  V30 BEGIN BOND
M  V30 1 3 1 2
M  V30 2 2 1 3
M  V30 3 1 1 10
M  V30 4 1 2 4
M  V30 5 1 2 12
M  V30 6 2 3 5
M  V30 7 1 3 11
M  V30 8 3 4 5
M  V30 9 2 4 8
M  V30 10 1 5 6
M  V30 11 1 6 9
M  V30 12 1 6 13
M  V30 13 1 7 8
M  V30 14 1 7 9
M  V30 15 1 7 14
M  V30 16 1 9 15
M  V30 END BOND
M  V30 END CTAB
M  END
>  <ID>
906
$$$$
Structure_907
Score 	 10.0, smilesprid 	smiles	 smilestrue 	smiles	 similartanimoto 	0	 similardice 	0

   15   16  0  0  0  0            999 V3000
M  V30 BEGIN CTAB
M  V30 COUNTS 15 16 0 0 0
M  V30 BEGIN ATOM
M  V30 1 C -2.5391 -0.1953 0.0000 0
M  V30 2 C -1.7578 -1.3672 0.0000 0
M  V30 3 C -1.7578 0.9766 0.0000 0
M  V30 4 C -0.3906 -0.7812 0.0000 0
M  V30 5 C -0.3906 0.5859 0.0000 0
M  V30 6 C 0.7812 1.1719 0.0000 0
M  V30 7 C 1.9531 -0.7812 0.0000 0
M  V30 8 N 0.7812 -1.5625 0.0000 0
M  V30 9 N 1.9531 0.3906 0.0000 0
M  V30 10 H -3.5156 -0.1953 0.0000 0
M  V30 11 H -2.1484 2.1484 0.0000 0
M  V30 12 H -1.9531 -2.3438 0.0000 0
M  V30 13 H 0.9766 2.3438 0.0000 0
M  V30 14 H 2.9297 -1.3672 0.0000 0
M  V30 15 H 2.7344 0.9766 0.0000 0
M  V30 END ATOM
M  V30 BEGIN BOND
M  V30 1 1 1 2
M  V30 2 3 1 3
M  V30 3 1 1 10
M  V30 4 1 2 4
M  V30 5 1 2 12
M  V30 6 2 3 5
M  V30 7 1 3 11
M  V30 8 3 4 5
M  V30 9 2 4 8
M  V30 10 1 5 6
M  V30 11 1 6 9
M  V30 12 1 6 13
M  V30 13 1 7 8
M  V30 14 1 7 9
M  V30 15 1 7 14
M  V30 16 1 9 15
M  V30 END BOND
M  V30 END CTAB
M  END
>  <ID>
907
$$$$
Structure_908
Score 	 10.0, smilesprid 	smiles	 smilestrue 	smiles	 similartanimoto 	0	 similardice 	0

   15   16  0  0  0  0            999 V3000
M  V30 BEGIN CTAB
M  V30 COUNTS 15 16 0 0 0
M  V30 BEGIN ATOM
M  V30 1 C -2.5391 -0.1953 0.0000 0
M  V30 2 C -1.7578 -1.3672 0.0000 0
M  V30 3 C -1.7578 0.9766 0.0000 0
M  V30 4 C -0.3906 -0.7812 0.0000 0
M  V30 5 C -0.3906 0.5859 0.0000 0
M  V30 6 C 0.7812 1.1719 0.0000 0
M  V30 7 C 1.9531 -0.7812 0.0000 0
M  V30 8 N 0.7812 -1.5625 0.0000 0
M  V30 9 N 1.9531 0.3906 0.0000 0
M  V30 10 H -3.5156 -0.1953 0.0000 0
M  V30 11 H -2.1484 2.1484 0.0000 0
M  V30 12 H -1.9531 -2.3438 0.0000 0
M  V30 13 H 0.9766 2.3438 0.0000 0
M  V30 14 H 2.9297 -1.3672 0.0000 0
M  V30 15 H 2.7344 0.9766 0.0000 0
M  V30 END ATOM
M  V30 BEGIN BOND
M  V30 1 2 1 2
M  V30 2 3 1 3
M  V30 3 1 1 10
M  V30 4 1 2 4
M  V30 5 1 2 12
M  V30 6 2 3 5
M  V30 7 1 3 11
M  V30 8 3 4 5
M  V30 9 2 4 8
M  V30 10 1 5 6
M  V30 11 1 6 9
M  V30 12 1 6 13
M  V30 13 1 7 8
M  V30 14 1 7 9
M  V30 15 1 7 14
M  V30 16 1 9 15
M  V30 END BOND
M  V30 END CTAB
M  END
>  <ID>
908
$$$$
Structure_909
Score 	 12.0, smilesprid 	smiles	 smilestrue 	smiles	 similartanimoto 	0	 similardice 	0

   15   16  0  0  0  0            999 V3000
M  V30 BEGIN CTAB
M  V30 COUNTS 15 16 0 0 0
M  V30 BEGIN ATOM
M  V30 1 C -2.5391 -0.1953 0.0000 0
M  V30 2 C -1.7578 -1.3672 0.0000 0
M  V30 3 C -1.7578 0.9766 0.0000 0
M  V30 4 C -0.3906 -0.7812 0.0000 0
M  V30 5 C -0.3906 0.5859 0.0000 0
M  V30 6 C 0.7812 1.1719 0.0000 0
M  V30 7 C 1.9531 -0.7812 0.0000 0
M  V30 8 N 0.7812 -1.5625 0.0000 0
M  V30 9 N 1.9531 0.3906 0.0000 0
M  V30 10 H -3.5156 -0.1953 0.0000 0
M  V30 11 H -2.1484 2.1484 0.0000 0
M  V30 12 H -1.9531 -2.3438 0.0000 0
M  V30 13 H 0.9766 2.3438 0.0000 0
M  V30 14 H 2.9297 -1.3672 0.0000 0
M  V30 15 H 2.7344 0.9766 0.0000 0
M  V30 END ATOM
M  V30 BEGIN BOND
M  V30 1 3 1 2
M  V30 2 3 1 3
M  V30 3 1 1 10
M  V30 4 1 2 4
M  V30 5 1 2 12
M  V30 6 2 3 5
M  V30 7 1 3 11
M  V30 8 3 4 5
M  V30 9 2 4 8
M  V30 10 1 5 6
M  V30 11 1 6 9
M  V30 12 1 6 13
M  V30 13 1 7 8
M  V30 14 1 7 9
M  V30 15 1 7 14
M  V30 16 1 9 15
M  V30 END BOND
M  V30 END CTAB
M  END
>  <ID>
909
$$$$
Structure_910
Score 	 10.0, smilesprid 	smiles	 smilestrue 	smiles	 similartanimoto 	0	 similardice 	0

   15   16  0  0  0  0            999 V3000
M  V30 BEGIN CTAB
M  V30 COUNTS 15 16 0 0 0
M  V30 BEGIN ATOM
M  V30 1 C -2.5391 -0.1953 0.0000 0
M  V30 2 C -1.7578 -1.3672 0.0000 0
M  V30 3 C -1.7578 0.9766 0.0000 0
M  V30 4 C -0.3906 -0.7812 0.0000 0
M  V30 5 C -0.3906 0.5859 0.0000 0
M  V30 6 C 0.7812 1.1719 0.0000 0
M  V30 7 C 1.9531 -0.7812 0.0000 0
M  V30 8 N 0.7812 -1.5625 0.0000 0
M  V30 9 N 1.9531 0.3906 0.0000 0
M  V30 10 H -3.5156 -0.1953 0.0000 0
M  V30 11 H -2.1484 2.1484 0.0000 0
M  V30 12 H -1.9531 -2.3438 0.0000 0
M  V30 13 H 0.9766 2.3438 0.0000 0
M  V30 14 H 2.9297 -1.3672 0.0000 0
M  V30 15 H 2.7344 0.9766 0.0000 0
M  V30 END ATOM
M  V30 BEGIN BOND
M  V30 1 1 1 2
M  V30 2 1 1 3
M  V30 3 1 1 10
M  V30 4 1 2 4
M  V30 5 1 2 12
M  V30 6 3 3 5
M  V30 7 1 3 11
M  V30 8 3 4 5
M  V30 9 2 4 8
M  V30 10 1 5 6
M  V30 11 1 6 9
M  V30 12 1 6 13
M  V30 13 1 7 8
M  V30 14 1 7 9
M  V30 15 1 7 14
M  V30 16 1 9 15
M  V30 END BOND
M  V30 END CTAB
M  END
>  <ID>
910
$$$$
Structure_911
Score 	 8.0, smilesprid 	smiles	 smilestrue 	smiles	 similartanimoto 	0	 similardice 	0

   15   16  0  0  0  0            999 V3000
M  V30 BEGIN CTAB
M  V30 COUNTS 15 16 0 0 0
M  V30 BEGIN ATOM
M  V30 1 C -2.5391 -0.1953 0.0000 0
M  V30 2 C -1.7578 -1.3672 0.0000 0
M  V30 3 C -1.7578 0.9766 0.0000 0
M  V30 4 C -0.3906 -0.7812 0.0000 0
M  V30 5 C -0.3906 0.5859 0.0000 0
M  V30 6 C 0.7812 1.1719 0.0000 0
M  V30 7 C 1.9531 -0.7812 0.0000 0
M  V30 8 N 0.7812 -1.5625 0.0000 0
M  V30 9 N 1.9531 0.3906 0.0000 0
M  V30 10 H -3.5156 -0.1953 0.0000 0
M  V30 11 H -2.1484 2.1484 0.0000 0
M  V30 12 H -1.9531 -2.3438 0.0000 0
M  V30 13 H 0.9766 2.3438 0.0000 0
M  V30 14 H 2.9297 -1.3672 0.0000 0
M  V30 15 H 2.7344 0.9766 0.0000 0
M  V30 END ATOM
M  V30 BEGIN BOND
M  V30 1 2 1 2
M  V30 2 1 1 3
M  V30 3 1 1 10
M  V30 4 1 2 4
M  V30 5 1 2 12
M  V30 6 3 3 5
M  V30 7 1 3 11
M  V30 8 3 4 5
M  V30 9 2 4 8
M  V30 10 1 5 6
M  V30 11 1 6 9
M  V30 12 1 6 13
M  V30 13 1 7 8
M  V30 14 1 7 9
M  V30 15 1 7 14
M  V30 16 1 9 15
M  V30 END BOND
M  V30 END CTAB
M  END
>  <ID>
911
$$$$
Structure_912
Score 	 10.0, smilesprid 	smiles	 smilestrue 	smiles	 similartanimoto 	0	 similardice 	0

   15   16  0  0  0  0            999 V3000
M  V30 BEGIN CTAB
M  V30 COUNTS 15 16 0 0 0
M  V30 BEGIN ATOM
M  V30 1 C -2.5391 -0.1953 0.0000 0
M  V30 2 C -1.7578 -1.3672 0.0000 0
M  V30 3 C -1.7578 0.9766 0.0000 0
M  V30 4 C -0.3906 -0.7812 0.0000 0
M  V30 5 C -0.3906 0.5859 0.0000 0
M  V30 6 C 0.7812 1.1719 0.0000 0
M  V30 7 C 1.9531 -0.7812 0.0000 0
M  V30 8 N 0.7812 -1.5625 0.0000 0
M  V30 9 N 1.9531 0.3906 0.0000 0
M  V30 10 H -3.5156 -0.1953 0.0000 0
M  V30 11 H -2.1484 2.1484 0.0000 0
M  V30 12 H -1.9531 -2.3438 0.0000 0
M  V30 13 H 0.9766 2.3438 0.0000 0
M  V30 14 H 2.9297 -1.3672 0.0000 0
M  V30 15 H 2.7344 0.9766 0.0000 0
M  V30 END ATOM
M  V30 BEGIN BOND
M  V30 1 3 1 2
M  V30 2 1 1 3
M  V30 3 1 1 10
M  V30 4 1 2 4
M  V30 5 1 2 12
M  V30 6 3 3 5
M  V30 7 1 3 11
M  V30 8 3 4 5
M  V30 9 2 4 8
M  V30 10 1 5 6
M  V30 11 1 6 9
M  V30 12 1 6 13
M  V30 13 1 7 8
M  V30 14 1 7 9
M  V30 15 1 7 14
M  V30 16 1 9 15
M  V30 END BOND
M  V30 END CTAB
M  END
>  <ID>
912
$$$$
Structure_913
Score 	 10.0, smilesprid 	smiles	 smilestrue 	smiles	 similartanimoto 	0	 similardice 	0

   15   16  0  0  0  0            999 V3000
M  V30 BEGIN CTAB
M  V30 COUNTS 15 16 0 0 0
M  V30 BEGIN ATOM
M  V30 1 C -2.5391 -0.1953 0.0000 0
M  V30 2 C -1.7578 -1.3672 0.0000 0
M  V30 3 C -1.7578 0.9766 0.0000 0
M  V30 4 C -0.3906 -0.7812 0.0000 0
M  V30 5 C -0.3906 0.5859 0.0000 0
M  V30 6 C 0.7812 1.1719 0.0000 0
M  V30 7 C 1.9531 -0.7812 0.0000 0
M  V30 8 N 0.7812 -1.5625 0.0000 0
M  V30 9 N 1.9531 0.3906 0.0000 0
M  V30 10 H -3.5156 -0.1953 0.0000 0
M  V30 11 H -2.1484 2.1484 0.0000 0
M  V30 12 H -1.9531 -2.3438 0.0000 0
M  V30 13 H 0.9766 2.3438 0.0000 0
M  V30 14 H 2.9297 -1.3672 0.0000 0
M  V30 15 H 2.7344 0.9766 0.0000 0
M  V30 END ATOM
M  V30 BEGIN BOND
M  V30 1 1 1 2
M  V30 2 2 1 3
M  V30 3 1 1 10
M  V30 4 1 2 4
M  V30 5 1 2 12
M  V30 6 3 3 5
M  V30 7 1 3 11
M  V30 8 3 4 5
M  V30 9 2 4 8
M  V30 10 1 5 6
M  V30 11 1 6 9
M  V30 12 1 6 13
M  V30 13 1 7 8
M  V30 14 1 7 9
M  V30 15 1 7 14
M  V30 16 1 9 15
M  V30 END BOND
M  V30 END CTAB
M  END
>  <ID>
913
$$$$
Structure_914
Score 	 10.0, smilesprid 	smiles	 smilestrue 	smiles	 similartanimoto 	0	 similardice 	0

   15   16  0  0  0  0            999 V3000
M  V30 BEGIN CTAB
M  V30 COUNTS 15 16 0 0 0
M  V30 BEGIN ATOM
M  V30 1 C -2.5391 -0.1953 0.0000 0
M  V30 2 C -1.7578 -1.3672 0.0000 0
M  V30 3 C -1.7578 0.9766 0.0000 0
M  V30 4 C -0.3906 -0.7812 0.0000 0
M  V30 5 C -0.3906 0.5859 0.0000 0
M  V30 6 C 0.7812 1.1719 0.0000 0
M  V30 7 C 1.9531 -0.7812 0.0000 0
M  V30 8 N 0.7812 -1.5625 0.0000 0
M  V30 9 N 1.9531 0.3906 0.0000 0
M  V30 10 H -3.5156 -0.1953 0.0000 0
M  V30 11 H -2.1484 2.1484 0.0000 0
M  V30 12 H -1.9531 -2.3438 0.0000 0
M  V30 13 H 0.9766 2.3438 0.0000 0
M  V30 14 H 2.9297 -1.3672 0.0000 0
M  V30 15 H 2.7344 0.9766 0.0000 0
M  V30 END ATOM
M  V30 BEGIN BOND
M  V30 1 2 1 2
M  V30 2 2 1 3
M  V30 3 1 1 10
M  V30 4 1 2 4
M  V30 5 1 2 12
M  V30 6 3 3 5
M  V30 7 1 3 11
M  V30 8 3 4 5
M  V30 9 2 4 8
M  V30 10 1 5 6
M  V30 11 1 6 9
M  V30 12 1 6 13
M  V30 13 1 7 8
M  V30 14 1 7 9
M  V30 15 1 7 14
M  V30 16 1 9 15
M  V30 END BOND
M  V30 END CTAB
M  END
>  <ID>
914
$$$$
Structure_915
Score 	 12.0, smilesprid 	smiles	 smilestrue 	smiles	 similartanimoto 	0	 similardice 	0

   15   16  0  0  0  0            999 V3000
M  V30 BEGIN CTAB
M  V30 COUNTS 15 16 0 0 0
M  V30 BEGIN ATOM
M  V30 1 C -2.5391 -0.1953 0.0000 0
M  V30 2 C -1.7578 -1.3672 0.0000 0
M  V30 3 C -1.7578 0.9766 0.0000 0
M  V30 4 C -0.3906 -0.7812 0.0000 0
M  V30 5 C -0.3906 0.5859 0.0000 0
M  V30 6 C 0.7812 1.1719 0.0000 0
M  V30 7 C 1.9531 -0.7812 0.0000 0
M  V30 8 N 0.7812 -1.5625 0.0000 0
M  V30 9 N 1.9531 0.3906 0.0000 0
M  V30 10 H -3.5156 -0.1953 0.0000 0
M  V30 11 H -2.1484 2.1484 0.0000 0
M  V30 12 H -1.9531 -2.3438 0.0000 0
M  V30 13 H 0.9766 2.3438 0.0000 0
M  V30 14 H 2.9297 -1.3672 0.0000 0
M  V30 15 H 2.7344 0.9766 0.0000 0
M  V30 END ATOM
M  V30 BEGIN BOND
M  V30 1 3 1 2
M  V30 2 2 1 3
M  V30 3 1 1 10
M  V30 4 1 2 4
M  V30 5 1 2 12
M  V30 6 3 3 5
M  V30 7 1 3 11
M  V30 8 3 4 5
M  V30 9 2 4 8
M  V30 10 1 5 6
M  V30 11 1 6 9
M  V30 12 1 6 13
M  V30 13 1 7 8
M  V30 14 1 7 9
M  V30 15 1 7 14
M  V30 16 1 9 15
M  V30 END BOND
M  V30 END CTAB
M  END
>  <ID>
915
$$$$
Structure_916
Score 	 12.0, smilesprid 	smiles	 smilestrue 	smiles	 similartanimoto 	0	 similardice 	0

   15   16  0  0  0  0            999 V3000
M  V30 BEGIN CTAB
M  V30 COUNTS 15 16 0 0 0
M  V30 BEGIN ATOM
M  V30 1 C -2.5391 -0.1953 0.0000 0
M  V30 2 C -1.7578 -1.3672 0.0000 0
M  V30 3 C -1.7578 0.9766 0.0000 0
M  V30 4 C -0.3906 -0.7812 0.0000 0
M  V30 5 C -0.3906 0.5859 0.0000 0
M  V30 6 C 0.7812 1.1719 0.0000 0
M  V30 7 C 1.9531 -0.7812 0.0000 0
M  V30 8 N 0.7812 -1.5625 0.0000 0
M  V30 9 N 1.9531 0.3906 0.0000 0
M  V30 10 H -3.5156 -0.1953 0.0000 0
M  V30 11 H -2.1484 2.1484 0.0000 0
M  V30 12 H -1.9531 -2.3438 0.0000 0
M  V30 13 H 0.9766 2.3438 0.0000 0
M  V30 14 H 2.9297 -1.3672 0.0000 0
M  V30 15 H 2.7344 0.9766 0.0000 0
M  V30 END ATOM
M  V30 BEGIN BOND
M  V30 1 1 1 2
M  V30 2 3 1 3
M  V30 3 1 1 10
M  V30 4 1 2 4
M  V30 5 1 2 12
M  V30 6 3 3 5
M  V30 7 1 3 11
M  V30 8 3 4 5
M  V30 9 2 4 8
M  V30 10 1 5 6
M  V30 11 1 6 9
M  V30 12 1 6 13
M  V30 13 1 7 8
M  V30 14 1 7 9
M  V30 15 1 7 14
M  V30 16 1 9 15
M  V30 END BOND
M  V30 END CTAB
M  END
>  <ID>
916
$$$$
Structure_917
Score 	 12.0, smilesprid 	smiles	 smilestrue 	smiles	 similartanimoto 	0	 similardice 	0

   15   16  0  0  0  0            999 V3000
M  V30 BEGIN CTAB
M  V30 COUNTS 15 16 0 0 0
M  V30 BEGIN ATOM
M  V30 1 C -2.5391 -0.1953 0.0000 0
M  V30 2 C -1.7578 -1.3672 0.0000 0
M  V30 3 C -1.7578 0.9766 0.0000 0
M  V30 4 C -0.3906 -0.7812 0.0000 0
M  V30 5 C -0.3906 0.5859 0.0000 0
M  V30 6 C 0.7812 1.1719 0.0000 0
M  V30 7 C 1.9531 -0.7812 0.0000 0
M  V30 8 N 0.7812 -1.5625 0.0000 0
M  V30 9 N 1.9531 0.3906 0.0000 0
M  V30 10 H -3.5156 -0.1953 0.0000 0
M  V30 11 H -2.1484 2.1484 0.0000 0
M  V30 12 H -1.9531 -2.3438 0.0000 0
M  V30 13 H 0.9766 2.3438 0.0000 0
M  V30 14 H 2.9297 -1.3672 0.0000 0
M  V30 15 H 2.7344 0.9766 0.0000 0
M  V30 END ATOM
M  V30 BEGIN BOND
M  V30 1 2 1 2
M  V30 2 3 1 3
M  V30 3 1 1 10
M  V30 4 1 2 4
M  V30 5 1 2 12
M  V30 6 3 3 5
M  V30 7 1 3 11
M  V30 8 3 4 5
M  V30 9 2 4 8
M  V30 10 1 5 6
M  V30 11 1 6 9
M  V30 12 1 6 13
M  V30 13 1 7 8
M  V30 14 1 7 9
M  V30 15 1 7 14
M  V30 16 1 9 15
M  V30 END BOND
M  V30 END CTAB
M  END
>  <ID>
917
$$$$
Structure_918
Score 	 14.0, smilesprid 	smiles	 smilestrue 	smiles	 similartanimoto 	0	 similardice 	0

   15   16  0  0  0  0            999 V3000
M  V30 BEGIN CTAB
M  V30 COUNTS 15 16 0 0 0
M  V30 BEGIN ATOM
M  V30 1 C -2.5391 -0.1953 0.0000 0
M  V30 2 C -1.7578 -1.3672 0.0000 0
M  V30 3 C -1.7578 0.9766 0.0000 0
M  V30 4 C -0.3906 -0.7812 0.0000 0
M  V30 5 C -0.3906 0.5859 0.0000 0
M  V30 6 C 0.7812 1.1719 0.0000 0
M  V30 7 C 1.9531 -0.7812 0.0000 0
M  V30 8 N 0.7812 -1.5625 0.0000 0
M  V30 9 N 1.9531 0.3906 0.0000 0
M  V30 10 H -3.5156 -0.1953 0.0000 0
M  V30 11 H -2.1484 2.1484 0.0000 0
M  V30 12 H -1.9531 -2.3438 0.0000 0
M  V30 13 H 0.9766 2.3438 0.0000 0
M  V30 14 H 2.9297 -1.3672 0.0000 0
M  V30 15 H 2.7344 0.9766 0.0000 0
M  V30 END ATOM
M  V30 BEGIN BOND
M  V30 1 3 1 2
M  V30 2 3 1 3
M  V30 3 1 1 10
M  V30 4 1 2 4
M  V30 5 1 2 12
M  V30 6 3 3 5
M  V30 7 1 3 11
M  V30 8 3 4 5
M  V30 9 2 4 8
M  V30 10 1 5 6
M  V30 11 1 6 9
M  V30 12 1 6 13
M  V30 13 1 7 8
M  V30 14 1 7 9
M  V30 15 1 7 14
M  V30 16 1 9 15
M  V30 END BOND
M  V30 END CTAB
M  END
>  <ID>
918
$$$$
Structure_919
Score 	 8.0, smilesprid 	smiles	 smilestrue 	smiles	 similartanimoto 	0	 similardice 	0

   15   16  0  0  0  0            999 V3000
M  V30 BEGIN CTAB
M  V30 COUNTS 15 16 0 0 0
M  V30 BEGIN ATOM
M  V30 1 C -2.5391 -0.1953 0.0000 0
M  V30 2 C -1.7578 -1.3672 0.0000 0
M  V30 3 C -1.7578 0.9766 0.0000 0
M  V30 4 C -0.3906 -0.7812 0.0000 0
M  V30 5 C -0.3906 0.5859 0.0000 0
M  V30 6 C 0.7812 1.1719 0.0000 0
M  V30 7 C 1.9531 -0.7812 0.0000 0
M  V30 8 N 0.7812 -1.5625 0.0000 0
M  V30 9 N 1.9531 0.3906 0.0000 0
M  V30 10 H -3.5156 -0.1953 0.0000 0
M  V30 11 H -2.1484 2.1484 0.0000 0
M  V30 12 H -1.9531 -2.3438 0.0000 0
M  V30 13 H 0.9766 2.3438 0.0000 0
M  V30 14 H 2.9297 -1.3672 0.0000 0
M  V30 15 H 2.7344 0.9766 0.0000 0
M  V30 END ATOM
M  V30 BEGIN BOND
M  V30 1 1 1 2
M  V30 2 1 1 3
M  V30 3 1 1 10
M  V30 4 2 2 4
M  V30 5 1 2 12
M  V30 6 1 3 5
M  V30 7 1 3 11
M  V30 8 3 4 5
M  V30 9 2 4 8
M  V30 10 1 5 6
M  V30 11 1 6 9
M  V30 12 1 6 13
M  V30 13 1 7 8
M  V30 14 1 7 9
M  V30 15 1 7 14
M  V30 16 1 9 15
M  V30 END BOND
M  V30 END CTAB
M  END
>  <ID>
919
$$$$
Structure_920
Score 	 8.0, smilesprid 	smiles	 smilestrue 	smiles	 similartanimoto 	0	 similardice 	0

   15   16  0  0  0  0            999 V3000
M  V30 BEGIN CTAB
M  V30 COUNTS 15 16 0 0 0
M  V30 BEGIN ATOM
M  V30 1 C -2.5391 -0.1953 0.0000 0
M  V30 2 C -1.7578 -1.3672 0.0000 0
M  V30 3 C -1.7578 0.9766 0.0000 0
M  V30 4 C -0.3906 -0.7812 0.0000 0
M  V30 5 C -0.3906 0.5859 0.0000 0
M  V30 6 C 0.7812 1.1719 0.0000 0
M  V30 7 C 1.9531 -0.7812 0.0000 0
M  V30 8 N 0.7812 -1.5625 0.0000 0
M  V30 9 N 1.9531 0.3906 0.0000 0
M  V30 10 H -3.5156 -0.1953 0.0000 0
M  V30 11 H -2.1484 2.1484 0.0000 0
M  V30 12 H -1.9531 -2.3438 0.0000 0
M  V30 13 H 0.9766 2.3438 0.0000 0
M  V30 14 H 2.9297 -1.3672 0.0000 0
M  V30 15 H 2.7344 0.9766 0.0000 0
M  V30 END ATOM
M  V30 BEGIN BOND
M  V30 1 2 1 2
M  V30 2 1 1 3
M  V30 3 1 1 10
M  V30 4 2 2 4
M  V30 5 1 2 12
M  V30 6 1 3 5
M  V30 7 1 3 11
M  V30 8 3 4 5
M  V30 9 2 4 8
M  V30 10 1 5 6
M  V30 11 1 6 9
M  V30 12 1 6 13
M  V30 13 1 7 8
M  V30 14 1 7 9
M  V30 15 1 7 14
M  V30 16 1 9 15
M  V30 END BOND
M  V30 END CTAB
M  END
>  <ID>
920
$$$$
Structure_921
Score 	 10.0, smilesprid 	smiles	 smilestrue 	smiles	 similartanimoto 	0	 similardice 	0

   15   16  0  0  0  0            999 V3000
M  V30 BEGIN CTAB
M  V30 COUNTS 15 16 0 0 0
M  V30 BEGIN ATOM
M  V30 1 C -2.5391 -0.1953 0.0000 0
M  V30 2 C -1.7578 -1.3672 0.0000 0
M  V30 3 C -1.7578 0.9766 0.0000 0
M  V30 4 C -0.3906 -0.7812 0.0000 0
M  V30 5 C -0.3906 0.5859 0.0000 0
M  V30 6 C 0.7812 1.1719 0.0000 0
M  V30 7 C 1.9531 -0.7812 0.0000 0
M  V30 8 N 0.7812 -1.5625 0.0000 0
M  V30 9 N 1.9531 0.3906 0.0000 0
M  V30 10 H -3.5156 -0.1953 0.0000 0
M  V30 11 H -2.1484 2.1484 0.0000 0
M  V30 12 H -1.9531 -2.3438 0.0000 0
M  V30 13 H 0.9766 2.3438 0.0000 0
M  V30 14 H 2.9297 -1.3672 0.0000 0
M  V30 15 H 2.7344 0.9766 0.0000 0
M  V30 END ATOM
M  V30 BEGIN BOND
M  V30 1 3 1 2
M  V30 2 1 1 3
M  V30 3 1 1 10
M  V30 4 2 2 4
M  V30 5 1 2 12
M  V30 6 1 3 5
M  V30 7 1 3 11
M  V30 8 3 4 5
M  V30 9 2 4 8
M  V30 10 1 5 6
M  V30 11 1 6 9
M  V30 12 1 6 13
M  V30 13 1 7 8
M  V30 14 1 7 9
M  V30 15 1 7 14
M  V30 16 1 9 15
M  V30 END BOND
M  V30 END CTAB
M  END
>  <ID>
921
$$$$
Structure_922
Score 	 6.0, smilesprid 	smiles	 smilestrue 	smiles	 similartanimoto 	0	 similardice 	0

   15   16  0  0  0  0            999 V3000
M  V30 BEGIN CTAB
M  V30 COUNTS 15 16 0 0 0
M  V30 BEGIN ATOM
M  V30 1 C -2.5391 -0.1953 0.0000 0
M  V30 2 C -1.7578 -1.3672 0.0000 0
M  V30 3 C -1.7578 0.9766 0.0000 0
M  V30 4 C -0.3906 -0.7812 0.0000 0
M  V30 5 C -0.3906 0.5859 0.0000 0
M  V30 6 C 0.7812 1.1719 0.0000 0
M  V30 7 C 1.9531 -0.7812 0.0000 0
M  V30 8 N 0.7812 -1.5625 0.0000 0
M  V30 9 N 1.9531 0.3906 0.0000 0
M  V30 10 H -3.5156 -0.1953 0.0000 0
M  V30 11 H -2.1484 2.1484 0.0000 0
M  V30 12 H -1.9531 -2.3438 0.0000 0
M  V30 13 H 0.9766 2.3438 0.0000 0
M  V30 14 H 2.9297 -1.3672 0.0000 0
M  V30 15 H 2.7344 0.9766 0.0000 0
M  V30 END ATOM
M  V30 BEGIN BOND
M  V30 1 1 1 2
M  V30 2 2 1 3
M  V30 3 1 1 10
M  V30 4 2 2 4
M  V30 5 1 2 12
M  V30 6 1 3 5
M  V30 7 1 3 11
M  V30 8 3 4 5
M  V30 9 2 4 8
M  V30 10 1 5 6
M  V30 11 1 6 9
M  V30 12 1 6 13
M  V30 13 1 7 8
M  V30 14 1 7 9
M  V30 15 1 7 14
M  V30 16 1 9 15
M  V30 END BOND
M  V30 END CTAB
M  END
>  <ID>
922
$$$$
Structure_923
Score 	 8.0, smilesprid 	smiles	 smilestrue 	smiles	 similartanimoto 	0	 similardice 	0

   15   16  0  0  0  0            999 V3000
M  V30 BEGIN CTAB
M  V30 COUNTS 15 16 0 0 0
M  V30 BEGIN ATOM
M  V30 1 C -2.5391 -0.1953 0.0000 0
M  V30 2 C -1.7578 -1.3672 0.0000 0
M  V30 3 C -1.7578 0.9766 0.0000 0
M  V30 4 C -0.3906 -0.7812 0.0000 0
M  V30 5 C -0.3906 0.5859 0.0000 0
M  V30 6 C 0.7812 1.1719 0.0000 0
M  V30 7 C 1.9531 -0.7812 0.0000 0
M  V30 8 N 0.7812 -1.5625 0.0000 0
M  V30 9 N 1.9531 0.3906 0.0000 0
M  V30 10 H -3.5156 -0.1953 0.0000 0
M  V30 11 H -2.1484 2.1484 0.0000 0
M  V30 12 H -1.9531 -2.3438 0.0000 0
M  V30 13 H 0.9766 2.3438 0.0000 0
M  V30 14 H 2.9297 -1.3672 0.0000 0
M  V30 15 H 2.7344 0.9766 0.0000 0
M  V30 END ATOM
M  V30 BEGIN BOND
M  V30 1 2 1 2
M  V30 2 2 1 3
M  V30 3 1 1 10
M  V30 4 2 2 4
M  V30 5 1 2 12
M  V30 6 1 3 5
M  V30 7 1 3 11
M  V30 8 3 4 5
M  V30 9 2 4 8
M  V30 10 1 5 6
M  V30 11 1 6 9
M  V30 12 1 6 13
M  V30 13 1 7 8
M  V30 14 1 7 9
M  V30 15 1 7 14
M  V30 16 1 9 15
M  V30 END BOND
M  V30 END CTAB
M  END
>  <ID>
923
$$$$
Structure_924
Score 	 10.0, smilesprid 	smiles	 smilestrue 	smiles	 similartanimoto 	0	 similardice 	0

   15   16  0  0  0  0            999 V3000
M  V30 BEGIN CTAB
M  V30 COUNTS 15 16 0 0 0
M  V30 BEGIN ATOM
M  V30 1 C -2.5391 -0.1953 0.0000 0
M  V30 2 C -1.7578 -1.3672 0.0000 0
M  V30 3 C -1.7578 0.9766 0.0000 0
M  V30 4 C -0.3906 -0.7812 0.0000 0
M  V30 5 C -0.3906 0.5859 0.0000 0
M  V30 6 C 0.7812 1.1719 0.0000 0
M  V30 7 C 1.9531 -0.7812 0.0000 0
M  V30 8 N 0.7812 -1.5625 0.0000 0
M  V30 9 N 1.9531 0.3906 0.0000 0
M  V30 10 H -3.5156 -0.1953 0.0000 0
M  V30 11 H -2.1484 2.1484 0.0000 0
M  V30 12 H -1.9531 -2.3438 0.0000 0
M  V30 13 H 0.9766 2.3438 0.0000 0
M  V30 14 H 2.9297 -1.3672 0.0000 0
M  V30 15 H 2.7344 0.9766 0.0000 0
M  V30 END ATOM
M  V30 BEGIN BOND
M  V30 1 3 1 2
M  V30 2 2 1 3
M  V30 3 1 1 10
M  V30 4 2 2 4
M  V30 5 1 2 12
M  V30 6 1 3 5
M  V30 7 1 3 11
M  V30 8 3 4 5
M  V30 9 2 4 8
M  V30 10 1 5 6
M  V30 11 1 6 9
M  V30 12 1 6 13
M  V30 13 1 7 8
M  V30 14 1 7 9
M  V30 15 1 7 14
M  V30 16 1 9 15
M  V30 END BOND
M  V30 END CTAB
M  END
>  <ID>
924
$$$$
Structure_925
Score 	 8.0, smilesprid 	smiles	 smilestrue 	smiles	 similartanimoto 	0	 similardice 	0

   15   16  0  0  0  0            999 V3000
M  V30 BEGIN CTAB
M  V30 COUNTS 15 16 0 0 0
M  V30 BEGIN ATOM
M  V30 1 C -2.5391 -0.1953 0.0000 0
M  V30 2 C -1.7578 -1.3672 0.0000 0
M  V30 3 C -1.7578 0.9766 0.0000 0
M  V30 4 C -0.3906 -0.7812 0.0000 0
M  V30 5 C -0.3906 0.5859 0.0000 0
M  V30 6 C 0.7812 1.1719 0.0000 0
M  V30 7 C 1.9531 -0.7812 0.0000 0
M  V30 8 N 0.7812 -1.5625 0.0000 0
M  V30 9 N 1.9531 0.3906 0.0000 0
M  V30 10 H -3.5156 -0.1953 0.0000 0
M  V30 11 H -2.1484 2.1484 0.0000 0
M  V30 12 H -1.9531 -2.3438 0.0000 0
M  V30 13 H 0.9766 2.3438 0.0000 0
M  V30 14 H 2.9297 -1.3672 0.0000 0
M  V30 15 H 2.7344 0.9766 0.0000 0
M  V30 END ATOM
M  V30 BEGIN BOND
M  V30 1 1 1 2
M  V30 2 3 1 3
M  V30 3 1 1 10
M  V30 4 2 2 4
M  V30 5 1 2 12
M  V30 6 1 3 5
M  V30 7 1 3 11
M  V30 8 3 4 5
M  V30 9 2 4 8
M  V30 10 1 5 6
M  V30 11 1 6 9
M  V30 12 1 6 13
M  V30 13 1 7 8
M  V30 14 1 7 9
M  V30 15 1 7 14
M  V30 16 1 9 15
M  V30 END BOND
M  V30 END CTAB
M  END
>  <ID>
925
$$$$
Structure_926
Score 	 10.0, smilesprid 	smiles	 smilestrue 	smiles	 similartanimoto 	0	 similardice 	0

   15   16  0  0  0  0            999 V3000
M  V30 BEGIN CTAB
M  V30 COUNTS 15 16 0 0 0
M  V30 BEGIN ATOM
M  V30 1 C -2.5391 -0.1953 0.0000 0
M  V30 2 C -1.7578 -1.3672 0.0000 0
M  V30 3 C -1.7578 0.9766 0.0000 0
M  V30 4 C -0.3906 -0.7812 0.0000 0
M  V30 5 C -0.3906 0.5859 0.0000 0
M  V30 6 C 0.7812 1.1719 0.0000 0
M  V30 7 C 1.9531 -0.7812 0.0000 0
M  V30 8 N 0.7812 -1.5625 0.0000 0
M  V30 9 N 1.9531 0.3906 0.0000 0
M  V30 10 H -3.5156 -0.1953 0.0000 0
M  V30 11 H -2.1484 2.1484 0.0000 0
M  V30 12 H -1.9531 -2.3438 0.0000 0
M  V30 13 H 0.9766 2.3438 0.0000 0
M  V30 14 H 2.9297 -1.3672 0.0000 0
M  V30 15 H 2.7344 0.9766 0.0000 0
M  V30 END ATOM
M  V30 BEGIN BOND
M  V30 1 2 1 2
M  V30 2 3 1 3
M  V30 3 1 1 10
M  V30 4 2 2 4
M  V30 5 1 2 12
M  V30 6 1 3 5
M  V30 7 1 3 11
M  V30 8 3 4 5
M  V30 9 2 4 8
M  V30 10 1 5 6
M  V30 11 1 6 9
M  V30 12 1 6 13
M  V30 13 1 7 8
M  V30 14 1 7 9
M  V30 15 1 7 14
M  V30 16 1 9 15
M  V30 END BOND
M  V30 END CTAB
M  END
>  <ID>
926
$$$$
Structure_927
Score 	 12.0, smilesprid 	smiles	 smilestrue 	smiles	 similartanimoto 	0	 similardice 	0

   15   16  0  0  0  0            999 V3000
M  V30 BEGIN CTAB
M  V30 COUNTS 15 16 0 0 0
M  V30 BEGIN ATOM
M  V30 1 C -2.5391 -0.1953 0.0000 0
M  V30 2 C -1.7578 -1.3672 0.0000 0
M  V30 3 C -1.7578 0.9766 0.0000 0
M  V30 4 C -0.3906 -0.7812 0.0000 0
M  V30 5 C -0.3906 0.5859 0.0000 0
M  V30 6 C 0.7812 1.1719 0.0000 0
M  V30 7 C 1.9531 -0.7812 0.0000 0
M  V30 8 N 0.7812 -1.5625 0.0000 0
M  V30 9 N 1.9531 0.3906 0.0000 0
M  V30 10 H -3.5156 -0.1953 0.0000 0
M  V30 11 H -2.1484 2.1484 0.0000 0
M  V30 12 H -1.9531 -2.3438 0.0000 0
M  V30 13 H 0.9766 2.3438 0.0000 0
M  V30 14 H 2.9297 -1.3672 0.0000 0
M  V30 15 H 2.7344 0.9766 0.0000 0
M  V30 END ATOM
M  V30 BEGIN BOND
M  V30 1 3 1 2
M  V30 2 3 1 3
M  V30 3 1 1 10
M  V30 4 2 2 4
M  V30 5 1 2 12
M  V30 6 1 3 5
M  V30 7 1 3 11
M  V30 8 3 4 5
M  V30 9 2 4 8
M  V30 10 1 5 6
M  V30 11 1 6 9
M  V30 12 1 6 13
M  V30 13 1 7 8
M  V30 14 1 7 9
M  V30 15 1 7 14
M  V30 16 1 9 15
M  V30 END BOND
M  V30 END CTAB
M  END
>  <ID>
927
$$$$
Structure_928
Score 	 8.0, smilesprid 	smiles	 smilestrue 	smiles	 similartanimoto 	0	 similardice 	0

   15   16  0  0  0  0            999 V3000
M  V30 BEGIN CTAB
M  V30 COUNTS 15 16 0 0 0
M  V30 BEGIN ATOM
M  V30 1 C -2.5391 -0.1953 0.0000 0
M  V30 2 C -1.7578 -1.3672 0.0000 0
M  V30 3 C -1.7578 0.9766 0.0000 0
M  V30 4 C -0.3906 -0.7812 0.0000 0
M  V30 5 C -0.3906 0.5859 0.0000 0
M  V30 6 C 0.7812 1.1719 0.0000 0
M  V30 7 C 1.9531 -0.7812 0.0000 0
M  V30 8 N 0.7812 -1.5625 0.0000 0
M  V30 9 N 1.9531 0.3906 0.0000 0
M  V30 10 H -3.5156 -0.1953 0.0000 0
M  V30 11 H -2.1484 2.1484 0.0000 0
M  V30 12 H -1.9531 -2.3438 0.0000 0
M  V30 13 H 0.9766 2.3438 0.0000 0
M  V30 14 H 2.9297 -1.3672 0.0000 0
M  V30 15 H 2.7344 0.9766 0.0000 0
M  V30 END ATOM
M  V30 BEGIN BOND
M  V30 1 1 1 2
M  V30 2 1 1 3
M  V30 3 1 1 10
M  V30 4 2 2 4
M  V30 5 1 2 12
M  V30 6 2 3 5
M  V30 7 1 3 11
M  V30 8 3 4 5
M  V30 9 2 4 8
M  V30 10 1 5 6
M  V30 11 1 6 9
M  V30 12 1 6 13
M  V30 13 1 7 8
M  V30 14 1 7 9
M  V30 15 1 7 14
M  V30 16 1 9 15
M  V30 END BOND
M  V30 END CTAB
M  END
>  <ID>
928
$$$$
Structure_929
Score 	 8.0, smilesprid 	smiles	 smilestrue 	smiles	 similartanimoto 	0	 similardice 	0

   15   16  0  0  0  0            999 V3000
M  V30 BEGIN CTAB
M  V30 COUNTS 15 16 0 0 0
M  V30 BEGIN ATOM
M  V30 1 C -2.5391 -0.1953 0.0000 0
M  V30 2 C -1.7578 -1.3672 0.0000 0
M  V30 3 C -1.7578 0.9766 0.0000 0
M  V30 4 C -0.3906 -0.7812 0.0000 0
M  V30 5 C -0.3906 0.5859 0.0000 0
M  V30 6 C 0.7812 1.1719 0.0000 0
M  V30 7 C 1.9531 -0.7812 0.0000 0
M  V30 8 N 0.7812 -1.5625 0.0000 0
M  V30 9 N 1.9531 0.3906 0.0000 0
M  V30 10 H -3.5156 -0.1953 0.0000 0
M  V30 11 H -2.1484 2.1484 0.0000 0
M  V30 12 H -1.9531 -2.3438 0.0000 0
M  V30 13 H 0.9766 2.3438 0.0000 0
M  V30 14 H 2.9297 -1.3672 0.0000 0
M  V30 15 H 2.7344 0.9766 0.0000 0
M  V30 END ATOM
M  V30 BEGIN BOND
M  V30 1 2 1 2
M  V30 2 1 1 3
M  V30 3 1 1 10
M  V30 4 2 2 4
M  V30 5 1 2 12
M  V30 6 2 3 5
M  V30 7 1 3 11
M  V30 8 3 4 5
M  V30 9 2 4 8
M  V30 10 1 5 6
M  V30 11 1 6 9
M  V30 12 1 6 13
M  V30 13 1 7 8
M  V30 14 1 7 9
M  V30 15 1 7 14
M  V30 16 1 9 15
M  V30 END BOND
M  V30 END CTAB
M  END
>  <ID>
929
$$$$
Structure_930
Score 	 10.0, smilesprid 	smiles	 smilestrue 	smiles	 similartanimoto 	0	 similardice 	0

   15   16  0  0  0  0            999 V3000
M  V30 BEGIN CTAB
M  V30 COUNTS 15 16 0 0 0
M  V30 BEGIN ATOM
M  V30 1 C -2.5391 -0.1953 0.0000 0
M  V30 2 C -1.7578 -1.3672 0.0000 0
M  V30 3 C -1.7578 0.9766 0.0000 0
M  V30 4 C -0.3906 -0.7812 0.0000 0
M  V30 5 C -0.3906 0.5859 0.0000 0
M  V30 6 C 0.7812 1.1719 0.0000 0
M  V30 7 C 1.9531 -0.7812 0.0000 0
M  V30 8 N 0.7812 -1.5625 0.0000 0
M  V30 9 N 1.9531 0.3906 0.0000 0
M  V30 10 H -3.5156 -0.1953 0.0000 0
M  V30 11 H -2.1484 2.1484 0.0000 0
M  V30 12 H -1.9531 -2.3438 0.0000 0
M  V30 13 H 0.9766 2.3438 0.0000 0
M  V30 14 H 2.9297 -1.3672 0.0000 0
M  V30 15 H 2.7344 0.9766 0.0000 0
M  V30 END ATOM
M  V30 BEGIN BOND
M  V30 1 3 1 2
M  V30 2 1 1 3
M  V30 3 1 1 10
M  V30 4 2 2 4
M  V30 5 1 2 12
M  V30 6 2 3 5
M  V30 7 1 3 11
M  V30 8 3 4 5
M  V30 9 2 4 8
M  V30 10 1 5 6
M  V30 11 1 6 9
M  V30 12 1 6 13
M  V30 13 1 7 8
M  V30 14 1 7 9
M  V30 15 1 7 14
M  V30 16 1 9 15
M  V30 END BOND
M  V30 END CTAB
M  END
>  <ID>
930
$$$$
Structure_931
Score 	 8.0, smilesprid 	smiles	 smilestrue 	smiles	 similartanimoto 	0	 similardice 	0

   15   16  0  0  0  0            999 V3000
M  V30 BEGIN CTAB
M  V30 COUNTS 15 16 0 0 0
M  V30 BEGIN ATOM
M  V30 1 C -2.5391 -0.1953 0.0000 0
M  V30 2 C -1.7578 -1.3672 0.0000 0
M  V30 3 C -1.7578 0.9766 0.0000 0
M  V30 4 C -0.3906 -0.7812 0.0000 0
M  V30 5 C -0.3906 0.5859 0.0000 0
M  V30 6 C 0.7812 1.1719 0.0000 0
M  V30 7 C 1.9531 -0.7812 0.0000 0
M  V30 8 N 0.7812 -1.5625 0.0000 0
M  V30 9 N 1.9531 0.3906 0.0000 0
M  V30 10 H -3.5156 -0.1953 0.0000 0
M  V30 11 H -2.1484 2.1484 0.0000 0
M  V30 12 H -1.9531 -2.3438 0.0000 0
M  V30 13 H 0.9766 2.3438 0.0000 0
M  V30 14 H 2.9297 -1.3672 0.0000 0
M  V30 15 H 2.7344 0.9766 0.0000 0
M  V30 END ATOM
M  V30 BEGIN BOND
M  V30 1 1 1 2
M  V30 2 2 1 3
M  V30 3 1 1 10
M  V30 4 2 2 4
M  V30 5 1 2 12
M  V30 6 2 3 5
M  V30 7 1 3 11
M  V30 8 3 4 5
M  V30 9 2 4 8
M  V30 10 1 5 6
M  V30 11 1 6 9
M  V30 12 1 6 13
M  V30 13 1 7 8
M  V30 14 1 7 9
M  V30 15 1 7 14
M  V30 16 1 9 15
M  V30 END BOND
M  V30 END CTAB
M  END
>  <ID>
931
$$$$
Structure_932
Score 	 10.0, smilesprid 	smiles	 smilestrue 	smiles	 similartanimoto 	0	 similardice 	0

   15   16  0  0  0  0            999 V3000
M  V30 BEGIN CTAB
M  V30 COUNTS 15 16 0 0 0
M  V30 BEGIN ATOM
M  V30 1 C -2.5391 -0.1953 0.0000 0
M  V30 2 C -1.7578 -1.3672 0.0000 0
M  V30 3 C -1.7578 0.9766 0.0000 0
M  V30 4 C -0.3906 -0.7812 0.0000 0
M  V30 5 C -0.3906 0.5859 0.0000 0
M  V30 6 C 0.7812 1.1719 0.0000 0
M  V30 7 C 1.9531 -0.7812 0.0000 0
M  V30 8 N 0.7812 -1.5625 0.0000 0
M  V30 9 N 1.9531 0.3906 0.0000 0
M  V30 10 H -3.5156 -0.1953 0.0000 0
M  V30 11 H -2.1484 2.1484 0.0000 0
M  V30 12 H -1.9531 -2.3438 0.0000 0
M  V30 13 H 0.9766 2.3438 0.0000 0
M  V30 14 H 2.9297 -1.3672 0.0000 0
M  V30 15 H 2.7344 0.9766 0.0000 0
M  V30 END ATOM
M  V30 BEGIN BOND
M  V30 1 2 1 2
M  V30 2 2 1 3
M  V30 3 1 1 10
M  V30 4 2 2 4
M  V30 5 1 2 12
M  V30 6 2 3 5
M  V30 7 1 3 11
M  V30 8 3 4 5
M  V30 9 2 4 8
M  V30 10 1 5 6
M  V30 11 1 6 9
M  V30 12 1 6 13
M  V30 13 1 7 8
M  V30 14 1 7 9
M  V30 15 1 7 14
M  V30 16 1 9 15
M  V30 END BOND
M  V30 END CTAB
M  END
>  <ID>
932
$$$$
Structure_933
Score 	 12.0, smilesprid 	smiles	 smilestrue 	smiles	 similartanimoto 	0	 similardice 	0

   15   16  0  0  0  0            999 V3000
M  V30 BEGIN CTAB
M  V30 COUNTS 15 16 0 0 0
M  V30 BEGIN ATOM
M  V30 1 C -2.5391 -0.1953 0.0000 0
M  V30 2 C -1.7578 -1.3672 0.0000 0
M  V30 3 C -1.7578 0.9766 0.0000 0
M  V30 4 C -0.3906 -0.7812 0.0000 0
M  V30 5 C -0.3906 0.5859 0.0000 0
M  V30 6 C 0.7812 1.1719 0.0000 0
M  V30 7 C 1.9531 -0.7812 0.0000 0
M  V30 8 N 0.7812 -1.5625 0.0000 0
M  V30 9 N 1.9531 0.3906 0.0000 0
M  V30 10 H -3.5156 -0.1953 0.0000 0
M  V30 11 H -2.1484 2.1484 0.0000 0
M  V30 12 H -1.9531 -2.3438 0.0000 0
M  V30 13 H 0.9766 2.3438 0.0000 0
M  V30 14 H 2.9297 -1.3672 0.0000 0
M  V30 15 H 2.7344 0.9766 0.0000 0
M  V30 END ATOM
M  V30 BEGIN BOND
M  V30 1 3 1 2
M  V30 2 2 1 3
M  V30 3 1 1 10
M  V30 4 2 2 4
M  V30 5 1 2 12
M  V30 6 2 3 5
M  V30 7 1 3 11
M  V30 8 3 4 5
M  V30 9 2 4 8
M  V30 10 1 5 6
M  V30 11 1 6 9
M  V30 12 1 6 13
M  V30 13 1 7 8
M  V30 14 1 7 9
M  V30 15 1 7 14
M  V30 16 1 9 15
M  V30 END BOND
M  V30 END CTAB
M  END
>  <ID>
933
$$$$
Structure_934
Score 	 10.0, smilesprid 	smiles	 smilestrue 	smiles	 similartanimoto 	0	 similardice 	0

   15   16  0  0  0  0            999 V3000
M  V30 BEGIN CTAB
M  V30 COUNTS 15 16 0 0 0
M  V30 BEGIN ATOM
M  V30 1 C -2.5391 -0.1953 0.0000 0
M  V30 2 C -1.7578 -1.3672 0.0000 0
M  V30 3 C -1.7578 0.9766 0.0000 0
M  V30 4 C -0.3906 -0.7812 0.0000 0
M  V30 5 C -0.3906 0.5859 0.0000 0
M  V30 6 C 0.7812 1.1719 0.0000 0
M  V30 7 C 1.9531 -0.7812 0.0000 0
M  V30 8 N 0.7812 -1.5625 0.0000 0
M  V30 9 N 1.9531 0.3906 0.0000 0
M  V30 10 H -3.5156 -0.1953 0.0000 0
M  V30 11 H -2.1484 2.1484 0.0000 0
M  V30 12 H -1.9531 -2.3438 0.0000 0
M  V30 13 H 0.9766 2.3438 0.0000 0
M  V30 14 H 2.9297 -1.3672 0.0000 0
M  V30 15 H 2.7344 0.9766 0.0000 0
M  V30 END ATOM
M  V30 BEGIN BOND
M  V30 1 1 1 2
M  V30 2 3 1 3
M  V30 3 1 1 10
M  V30 4 2 2 4
M  V30 5 1 2 12
M  V30 6 2 3 5
M  V30 7 1 3 11
M  V30 8 3 4 5
M  V30 9 2 4 8
M  V30 10 1 5 6
M  V30 11 1 6 9
M  V30 12 1 6 13
M  V30 13 1 7 8
M  V30 14 1 7 9
M  V30 15 1 7 14
M  V30 16 1 9 15
M  V30 END BOND
M  V30 END CTAB
M  END
>  <ID>
934
$$$$
Structure_935
Score 	 12.0, smilesprid 	smiles	 smilestrue 	smiles	 similartanimoto 	0	 similardice 	0

   15   16  0  0  0  0            999 V3000
M  V30 BEGIN CTAB
M  V30 COUNTS 15 16 0 0 0
M  V30 BEGIN ATOM
M  V30 1 C -2.5391 -0.1953 0.0000 0
M  V30 2 C -1.7578 -1.3672 0.0000 0
M  V30 3 C -1.7578 0.9766 0.0000 0
M  V30 4 C -0.3906 -0.7812 0.0000 0
M  V30 5 C -0.3906 0.5859 0.0000 0
M  V30 6 C 0.7812 1.1719 0.0000 0
M  V30 7 C 1.9531 -0.7812 0.0000 0
M  V30 8 N 0.7812 -1.5625 0.0000 0
M  V30 9 N 1.9531 0.3906 0.0000 0
M  V30 10 H -3.5156 -0.1953 0.0000 0
M  V30 11 H -2.1484 2.1484 0.0000 0
M  V30 12 H -1.9531 -2.3438 0.0000 0
M  V30 13 H 0.9766 2.3438 0.0000 0
M  V30 14 H 2.9297 -1.3672 0.0000 0
M  V30 15 H 2.7344 0.9766 0.0000 0
M  V30 END ATOM
M  V30 BEGIN BOND
M  V30 1 2 1 2
M  V30 2 3 1 3
M  V30 3 1 1 10
M  V30 4 2 2 4
M  V30 5 1 2 12
M  V30 6 2 3 5
M  V30 7 1 3 11
M  V30 8 3 4 5
M  V30 9 2 4 8
M  V30 10 1 5 6
M  V30 11 1 6 9
M  V30 12 1 6 13
M  V30 13 1 7 8
M  V30 14 1 7 9
M  V30 15 1 7 14
M  V30 16 1 9 15
M  V30 END BOND
M  V30 END CTAB
M  END
>  <ID>
935
$$$$
Structure_936
Score 	 14.0, smilesprid 	smiles	 smilestrue 	smiles	 similartanimoto 	0	 similardice 	0

   15   16  0  0  0  0            999 V3000
M  V30 BEGIN CTAB
M  V30 COUNTS 15 16 0 0 0
M  V30 BEGIN ATOM
M  V30 1 C -2.5391 -0.1953 0.0000 0
M  V30 2 C -1.7578 -1.3672 0.0000 0
M  V30 3 C -1.7578 0.9766 0.0000 0
M  V30 4 C -0.3906 -0.7812 0.0000 0
M  V30 5 C -0.3906 0.5859 0.0000 0
M  V30 6 C 0.7812 1.1719 0.0000 0
M  V30 7 C 1.9531 -0.7812 0.0000 0
M  V30 8 N 0.7812 -1.5625 0.0000 0
M  V30 9 N 1.9531 0.3906 0.0000 0
M  V30 10 H -3.5156 -0.1953 0.0000 0
M  V30 11 H -2.1484 2.1484 0.0000 0
M  V30 12 H -1.9531 -2.3438 0.0000 0
M  V30 13 H 0.9766 2.3438 0.0000 0
M  V30 14 H 2.9297 -1.3672 0.0000 0
M  V30 15 H 2.7344 0.9766 0.0000 0
M  V30 END ATOM
M  V30 BEGIN BOND
M  V30 1 3 1 2
M  V30 2 3 1 3
M  V30 3 1 1 10
M  V30 4 2 2 4
M  V30 5 1 2 12
M  V30 6 2 3 5
M  V30 7 1 3 11
M  V30 8 3 4 5
M  V30 9 2 4 8
M  V30 10 1 5 6
M  V30 11 1 6 9
M  V30 12 1 6 13
M  V30 13 1 7 8
M  V30 14 1 7 9
M  V30 15 1 7 14
M  V30 16 1 9 15
M  V30 END BOND
M  V30 END CTAB
M  END
>  <ID>
936
$$$$
Structure_937
Score 	 10.0, smilesprid 	smiles	 smilestrue 	smiles	 similartanimoto 	0	 similardice 	0

   15   16  0  0  0  0            999 V3000
M  V30 BEGIN CTAB
M  V30 COUNTS 15 16 0 0 0
M  V30 BEGIN ATOM
M  V30 1 C -2.5391 -0.1953 0.0000 0
M  V30 2 C -1.7578 -1.3672 0.0000 0
M  V30 3 C -1.7578 0.9766 0.0000 0
M  V30 4 C -0.3906 -0.7812 0.0000 0
M  V30 5 C -0.3906 0.5859 0.0000 0
M  V30 6 C 0.7812 1.1719 0.0000 0
M  V30 7 C 1.9531 -0.7812 0.0000 0
M  V30 8 N 0.7812 -1.5625 0.0000 0
M  V30 9 N 1.9531 0.3906 0.0000 0
M  V30 10 H -3.5156 -0.1953 0.0000 0
M  V30 11 H -2.1484 2.1484 0.0000 0
M  V30 12 H -1.9531 -2.3438 0.0000 0
M  V30 13 H 0.9766 2.3438 0.0000 0
M  V30 14 H 2.9297 -1.3672 0.0000 0
M  V30 15 H 2.7344 0.9766 0.0000 0
M  V30 END ATOM
M  V30 BEGIN BOND
M  V30 1 1 1 2
M  V30 2 1 1 3
M  V30 3 1 1 10
M  V30 4 2 2 4
M  V30 5 1 2 12
M  V30 6 3 3 5
M  V30 7 1 3 11
M  V30 8 3 4 5
M  V30 9 2 4 8
M  V30 10 1 5 6
M  V30 11 1 6 9
M  V30 12 1 6 13
M  V30 13 1 7 8
M  V30 14 1 7 9
M  V30 15 1 7 14
M  V30 16 1 9 15
M  V30 END BOND
M  V30 END CTAB
M  END
>  <ID>
937
$$$$
Structure_938
Score 	 10.0, smilesprid 	smiles	 smilestrue 	smiles	 similartanimoto 	0	 similardice 	0

   15   16  0  0  0  0            999 V3000
M  V30 BEGIN CTAB
M  V30 COUNTS 15 16 0 0 0
M  V30 BEGIN ATOM
M  V30 1 C -2.5391 -0.1953 0.0000 0
M  V30 2 C -1.7578 -1.3672 0.0000 0
M  V30 3 C -1.7578 0.9766 0.0000 0
M  V30 4 C -0.3906 -0.7812 0.0000 0
M  V30 5 C -0.3906 0.5859 0.0000 0
M  V30 6 C 0.7812 1.1719 0.0000 0
M  V30 7 C 1.9531 -0.7812 0.0000 0
M  V30 8 N 0.7812 -1.5625 0.0000 0
M  V30 9 N 1.9531 0.3906 0.0000 0
M  V30 10 H -3.5156 -0.1953 0.0000 0
M  V30 11 H -2.1484 2.1484 0.0000 0
M  V30 12 H -1.9531 -2.3438 0.0000 0
M  V30 13 H 0.9766 2.3438 0.0000 0
M  V30 14 H 2.9297 -1.3672 0.0000 0
M  V30 15 H 2.7344 0.9766 0.0000 0
M  V30 END ATOM
M  V30 BEGIN BOND
M  V30 1 2 1 2
M  V30 2 1 1 3
M  V30 3 1 1 10
M  V30 4 2 2 4
M  V30 5 1 2 12
M  V30 6 3 3 5
M  V30 7 1 3 11
M  V30 8 3 4 5
M  V30 9 2 4 8
M  V30 10 1 5 6
M  V30 11 1 6 9
M  V30 12 1 6 13
M  V30 13 1 7 8
M  V30 14 1 7 9
M  V30 15 1 7 14
M  V30 16 1 9 15
M  V30 END BOND
M  V30 END CTAB
M  END
>  <ID>
938
$$$$
Structure_939
Score 	 12.0, smilesprid 	smiles	 smilestrue 	smiles	 similartanimoto 	0	 similardice 	0

   15   16  0  0  0  0            999 V3000
M  V30 BEGIN CTAB
M  V30 COUNTS 15 16 0 0 0
M  V30 BEGIN ATOM
M  V30 1 C -2.5391 -0.1953 0.0000 0
M  V30 2 C -1.7578 -1.3672 0.0000 0
M  V30 3 C -1.7578 0.9766 0.0000 0
M  V30 4 C -0.3906 -0.7812 0.0000 0
M  V30 5 C -0.3906 0.5859 0.0000 0
M  V30 6 C 0.7812 1.1719 0.0000 0
M  V30 7 C 1.9531 -0.7812 0.0000 0
M  V30 8 N 0.7812 -1.5625 0.0000 0
M  V30 9 N 1.9531 0.3906 0.0000 0
M  V30 10 H -3.5156 -0.1953 0.0000 0
M  V30 11 H -2.1484 2.1484 0.0000 0
M  V30 12 H -1.9531 -2.3438 0.0000 0
M  V30 13 H 0.9766 2.3438 0.0000 0
M  V30 14 H 2.9297 -1.3672 0.0000 0
M  V30 15 H 2.7344 0.9766 0.0000 0
M  V30 END ATOM
M  V30 BEGIN BOND
M  V30 1 3 1 2
M  V30 2 1 1 3
M  V30 3 1 1 10
M  V30 4 2 2 4
M  V30 5 1 2 12
M  V30 6 3 3 5
M  V30 7 1 3 11
M  V30 8 3 4 5
M  V30 9 2 4 8
M  V30 10 1 5 6
M  V30 11 1 6 9
M  V30 12 1 6 13
M  V30 13 1 7 8
M  V30 14 1 7 9
M  V30 15 1 7 14
M  V30 16 1 9 15
M  V30 END BOND
M  V30 END CTAB
M  END
>  <ID>
939
$$$$
Structure_940
Score 	 10.0, smilesprid 	smiles	 smilestrue 	smiles	 similartanimoto 	0	 similardice 	0

   15   16  0  0  0  0            999 V3000
M  V30 BEGIN CTAB
M  V30 COUNTS 15 16 0 0 0
M  V30 BEGIN ATOM
M  V30 1 C -2.5391 -0.1953 0.0000 0
M  V30 2 C -1.7578 -1.3672 0.0000 0
M  V30 3 C -1.7578 0.9766 0.0000 0
M  V30 4 C -0.3906 -0.7812 0.0000 0
M  V30 5 C -0.3906 0.5859 0.0000 0
M  V30 6 C 0.7812 1.1719 0.0000 0
M  V30 7 C 1.9531 -0.7812 0.0000 0
M  V30 8 N 0.7812 -1.5625 0.0000 0
M  V30 9 N 1.9531 0.3906 0.0000 0
M  V30 10 H -3.5156 -0.1953 0.0000 0
M  V30 11 H -2.1484 2.1484 0.0000 0
M  V30 12 H -1.9531 -2.3438 0.0000 0
M  V30 13 H 0.9766 2.3438 0.0000 0
M  V30 14 H 2.9297 -1.3672 0.0000 0
M  V30 15 H 2.7344 0.9766 0.0000 0
M  V30 END ATOM
M  V30 BEGIN BOND
M  V30 1 1 1 2
M  V30 2 2 1 3
M  V30 3 1 1 10
M  V30 4 2 2 4
M  V30 5 1 2 12
M  V30 6 3 3 5
M  V30 7 1 3 11
M  V30 8 3 4 5
M  V30 9 2 4 8
M  V30 10 1 5 6
M  V30 11 1 6 9
M  V30 12 1 6 13
M  V30 13 1 7 8
M  V30 14 1 7 9
M  V30 15 1 7 14
M  V30 16 1 9 15
M  V30 END BOND
M  V30 END CTAB
M  END
>  <ID>
940
$$$$
Structure_941
Score 	 12.0, smilesprid 	smiles	 smilestrue 	smiles	 similartanimoto 	0	 similardice 	0

   15   16  0  0  0  0            999 V3000
M  V30 BEGIN CTAB
M  V30 COUNTS 15 16 0 0 0
M  V30 BEGIN ATOM
M  V30 1 C -2.5391 -0.1953 0.0000 0
M  V30 2 C -1.7578 -1.3672 0.0000 0
M  V30 3 C -1.7578 0.9766 0.0000 0
M  V30 4 C -0.3906 -0.7812 0.0000 0
M  V30 5 C -0.3906 0.5859 0.0000 0
M  V30 6 C 0.7812 1.1719 0.0000 0
M  V30 7 C 1.9531 -0.7812 0.0000 0
M  V30 8 N 0.7812 -1.5625 0.0000 0
M  V30 9 N 1.9531 0.3906 0.0000 0
M  V30 10 H -3.5156 -0.1953 0.0000 0
M  V30 11 H -2.1484 2.1484 0.0000 0
M  V30 12 H -1.9531 -2.3438 0.0000 0
M  V30 13 H 0.9766 2.3438 0.0000 0
M  V30 14 H 2.9297 -1.3672 0.0000 0
M  V30 15 H 2.7344 0.9766 0.0000 0
M  V30 END ATOM
M  V30 BEGIN BOND
M  V30 1 2 1 2
M  V30 2 2 1 3
M  V30 3 1 1 10
M  V30 4 2 2 4
M  V30 5 1 2 12
M  V30 6 3 3 5
M  V30 7 1 3 11
M  V30 8 3 4 5
M  V30 9 2 4 8
M  V30 10 1 5 6
M  V30 11 1 6 9
M  V30 12 1 6 13
M  V30 13 1 7 8
M  V30 14 1 7 9
M  V30 15 1 7 14
M  V30 16 1 9 15
M  V30 END BOND
M  V30 END CTAB
M  END
>  <ID>
941
$$$$
Structure_942
Score 	 14.0, smilesprid 	smiles	 smilestrue 	smiles	 similartanimoto 	0	 similardice 	0

   15   16  0  0  0  0            999 V3000
M  V30 BEGIN CTAB
M  V30 COUNTS 15 16 0 0 0
M  V30 BEGIN ATOM
M  V30 1 C -2.5391 -0.1953 0.0000 0
M  V30 2 C -1.7578 -1.3672 0.0000 0
M  V30 3 C -1.7578 0.9766 0.0000 0
M  V30 4 C -0.3906 -0.7812 0.0000 0
M  V30 5 C -0.3906 0.5859 0.0000 0
M  V30 6 C 0.7812 1.1719 0.0000 0
M  V30 7 C 1.9531 -0.7812 0.0000 0
M  V30 8 N 0.7812 -1.5625 0.0000 0
M  V30 9 N 1.9531 0.3906 0.0000 0
M  V30 10 H -3.5156 -0.1953 0.0000 0
M  V30 11 H -2.1484 2.1484 0.0000 0
M  V30 12 H -1.9531 -2.3438 0.0000 0
M  V30 13 H 0.9766 2.3438 0.0000 0
M  V30 14 H 2.9297 -1.3672 0.0000 0
M  V30 15 H 2.7344 0.9766 0.0000 0
M  V30 END ATOM
M  V30 BEGIN BOND
M  V30 1 3 1 2
M  V30 2 2 1 3
M  V30 3 1 1 10
M  V30 4 2 2 4
M  V30 5 1 2 12
M  V30 6 3 3 5
M  V30 7 1 3 11
M  V30 8 3 4 5
M  V30 9 2 4 8
M  V30 10 1 5 6
M  V30 11 1 6 9
M  V30 12 1 6 13
M  V30 13 1 7 8
M  V30 14 1 7 9
M  V30 15 1 7 14
M  V30 16 1 9 15
M  V30 END BOND
M  V30 END CTAB
M  END
>  <ID>
942
$$$$
Structure_943
Score 	 12.0, smilesprid 	smiles	 smilestrue 	smiles	 similartanimoto 	0	 similardice 	0

   15   16  0  0  0  0            999 V3000
M  V30 BEGIN CTAB
M  V30 COUNTS 15 16 0 0 0
M  V30 BEGIN ATOM
M  V30 1 C -2.5391 -0.1953 0.0000 0
M  V30 2 C -1.7578 -1.3672 0.0000 0
M  V30 3 C -1.7578 0.9766 0.0000 0
M  V30 4 C -0.3906 -0.7812 0.0000 0
M  V30 5 C -0.3906 0.5859 0.0000 0
M  V30 6 C 0.7812 1.1719 0.0000 0
M  V30 7 C 1.9531 -0.7812 0.0000 0
M  V30 8 N 0.7812 -1.5625 0.0000 0
M  V30 9 N 1.9531 0.3906 0.0000 0
M  V30 10 H -3.5156 -0.1953 0.0000 0
M  V30 11 H -2.1484 2.1484 0.0000 0
M  V30 12 H -1.9531 -2.3438 0.0000 0
M  V30 13 H 0.9766 2.3438 0.0000 0
M  V30 14 H 2.9297 -1.3672 0.0000 0
M  V30 15 H 2.7344 0.9766 0.0000 0
M  V30 END ATOM
M  V30 BEGIN BOND
M  V30 1 1 1 2
M  V30 2 3 1 3
M  V30 3 1 1 10
M  V30 4 2 2 4
M  V30 5 1 2 12
M  V30 6 3 3 5
M  V30 7 1 3 11
M  V30 8 3 4 5
M  V30 9 2 4 8
M  V30 10 1 5 6
M  V30 11 1 6 9
M  V30 12 1 6 13
M  V30 13 1 7 8
M  V30 14 1 7 9
M  V30 15 1 7 14
M  V30 16 1 9 15
M  V30 END BOND
M  V30 END CTAB
M  END
>  <ID>
943
$$$$
Structure_944
Score 	 14.0, smilesprid 	smiles	 smilestrue 	smiles	 similartanimoto 	0	 similardice 	0

   15   16  0  0  0  0            999 V3000
M  V30 BEGIN CTAB
M  V30 COUNTS 15 16 0 0 0
M  V30 BEGIN ATOM
M  V30 1 C -2.5391 -0.1953 0.0000 0
M  V30 2 C -1.7578 -1.3672 0.0000 0
M  V30 3 C -1.7578 0.9766 0.0000 0
M  V30 4 C -0.3906 -0.7812 0.0000 0
M  V30 5 C -0.3906 0.5859 0.0000 0
M  V30 6 C 0.7812 1.1719 0.0000 0
M  V30 7 C 1.9531 -0.7812 0.0000 0
M  V30 8 N 0.7812 -1.5625 0.0000 0
M  V30 9 N 1.9531 0.3906 0.0000 0
M  V30 10 H -3.5156 -0.1953 0.0000 0
M  V30 11 H -2.1484 2.1484 0.0000 0
M  V30 12 H -1.9531 -2.3438 0.0000 0
M  V30 13 H 0.9766 2.3438 0.0000 0
M  V30 14 H 2.9297 -1.3672 0.0000 0
M  V30 15 H 2.7344 0.9766 0.0000 0
M  V30 END ATOM
M  V30 BEGIN BOND
M  V30 1 2 1 2
M  V30 2 3 1 3
M  V30 3 1 1 10
M  V30 4 2 2 4
M  V30 5 1 2 12
M  V30 6 3 3 5
M  V30 7 1 3 11
M  V30 8 3 4 5
M  V30 9 2 4 8
M  V30 10 1 5 6
M  V30 11 1 6 9
M  V30 12 1 6 13
M  V30 13 1 7 8
M  V30 14 1 7 9
M  V30 15 1 7 14
M  V30 16 1 9 15
M  V30 END BOND
M  V30 END CTAB
M  END
>  <ID>
944
$$$$
Structure_945
Score 	 16.0, smilesprid 	smiles	 smilestrue 	smiles	 similartanimoto 	0	 similardice 	0

   15   16  0  0  0  0            999 V3000
M  V30 BEGIN CTAB
M  V30 COUNTS 15 16 0 0 0
M  V30 BEGIN ATOM
M  V30 1 C -2.5391 -0.1953 0.0000 0
M  V30 2 C -1.7578 -1.3672 0.0000 0
M  V30 3 C -1.7578 0.9766 0.0000 0
M  V30 4 C -0.3906 -0.7812 0.0000 0
M  V30 5 C -0.3906 0.5859 0.0000 0
M  V30 6 C 0.7812 1.1719 0.0000 0
M  V30 7 C 1.9531 -0.7812 0.0000 0
M  V30 8 N 0.7812 -1.5625 0.0000 0
M  V30 9 N 1.9531 0.3906 0.0000 0
M  V30 10 H -3.5156 -0.1953 0.0000 0
M  V30 11 H -2.1484 2.1484 0.0000 0
M  V30 12 H -1.9531 -2.3438 0.0000 0
M  V30 13 H 0.9766 2.3438 0.0000 0
M  V30 14 H 2.9297 -1.3672 0.0000 0
M  V30 15 H 2.7344 0.9766 0.0000 0
M  V30 END ATOM
M  V30 BEGIN BOND
M  V30 1 3 1 2
M  V30 2 3 1 3
M  V30 3 1 1 10
M  V30 4 2 2 4
M  V30 5 1 2 12
M  V30 6 3 3 5
M  V30 7 1 3 11
M  V30 8 3 4 5
M  V30 9 2 4 8
M  V30 10 1 5 6
M  V30 11 1 6 9
M  V30 12 1 6 13
M  V30 13 1 7 8
M  V30 14 1 7 9
M  V30 15 1 7 14
M  V30 16 1 9 15
M  V30 END BOND
M  V30 END CTAB
M  END
>  <ID>
945
$$$$
Structure_946
Score 	 10.0, smilesprid 	smiles	 smilestrue 	smiles	 similartanimoto 	0	 similardice 	0

   15   16  0  0  0  0            999 V3000
M  V30 BEGIN CTAB
M  V30 COUNTS 15 16 0 0 0
M  V30 BEGIN ATOM
M  V30 1 C -2.5391 -0.1953 0.0000 0
M  V30 2 C -1.7578 -1.3672 0.0000 0
M  V30 3 C -1.7578 0.9766 0.0000 0
M  V30 4 C -0.3906 -0.7812 0.0000 0
M  V30 5 C -0.3906 0.5859 0.0000 0
M  V30 6 C 0.7812 1.1719 0.0000 0
M  V30 7 C 1.9531 -0.7812 0.0000 0
M  V30 8 N 0.7812 -1.5625 0.0000 0
M  V30 9 N 1.9531 0.3906 0.0000 0
M  V30 10 H -3.5156 -0.1953 0.0000 0
M  V30 11 H -2.1484 2.1484 0.0000 0
M  V30 12 H -1.9531 -2.3438 0.0000 0
M  V30 13 H 0.9766 2.3438 0.0000 0
M  V30 14 H 2.9297 -1.3672 0.0000 0
M  V30 15 H 2.7344 0.9766 0.0000 0
M  V30 END ATOM
M  V30 BEGIN BOND
M  V30 1 1 1 2
M  V30 2 1 1 3
M  V30 3 1 1 10
M  V30 4 3 2 4
M  V30 5 1 2 12
M  V30 6 1 3 5
M  V30 7 1 3 11
M  V30 8 3 4 5
M  V30 9 2 4 8
M  V30 10 1 5 6
M  V30 11 1 6 9
M  V30 12 1 6 13
M  V30 13 1 7 8
M  V30 14 1 7 9
M  V30 15 1 7 14
M  V30 16 1 9 15
M  V30 END BOND
M  V30 END CTAB
M  END
>  <ID>
946
$$$$
Structure_947
Score 	 10.0, smilesprid 	smiles	 smilestrue 	smiles	 similartanimoto 	0	 similardice 	0

   15   16  0  0  0  0            999 V3000
M  V30 BEGIN CTAB
M  V30 COUNTS 15 16 0 0 0
M  V30 BEGIN ATOM
M  V30 1 C -2.5391 -0.1953 0.0000 0
M  V30 2 C -1.7578 -1.3672 0.0000 0
M  V30 3 C -1.7578 0.9766 0.0000 0
M  V30 4 C -0.3906 -0.7812 0.0000 0
M  V30 5 C -0.3906 0.5859 0.0000 0
M  V30 6 C 0.7812 1.1719 0.0000 0
M  V30 7 C 1.9531 -0.7812 0.0000 0
M  V30 8 N 0.7812 -1.5625 0.0000 0
M  V30 9 N 1.9531 0.3906 0.0000 0
M  V30 10 H -3.5156 -0.1953 0.0000 0
M  V30 11 H -2.1484 2.1484 0.0000 0
M  V30 12 H -1.9531 -2.3438 0.0000 0
M  V30 13 H 0.9766 2.3438 0.0000 0
M  V30 14 H 2.9297 -1.3672 0.0000 0
M  V30 15 H 2.7344 0.9766 0.0000 0
M  V30 END ATOM
M  V30 BEGIN BOND
M  V30 1 2 1 2
M  V30 2 1 1 3
M  V30 3 1 1 10
M  V30 4 3 2 4
M  V30 5 1 2 12
M  V30 6 1 3 5
M  V30 7 1 3 11
M  V30 8 3 4 5
M  V30 9 2 4 8
M  V30 10 1 5 6
M  V30 11 1 6 9
M  V30 12 1 6 13
M  V30 13 1 7 8
M  V30 14 1 7 9
M  V30 15 1 7 14
M  V30 16 1 9 15
M  V30 END BOND
M  V30 END CTAB
M  END
>  <ID>
947
$$$$
Structure_948
Score 	 12.0, smilesprid 	smiles	 smilestrue 	smiles	 similartanimoto 	0	 similardice 	0

   15   16  0  0  0  0            999 V3000
M  V30 BEGIN CTAB
M  V30 COUNTS 15 16 0 0 0
M  V30 BEGIN ATOM
M  V30 1 C -2.5391 -0.1953 0.0000 0
M  V30 2 C -1.7578 -1.3672 0.0000 0
M  V30 3 C -1.7578 0.9766 0.0000 0
M  V30 4 C -0.3906 -0.7812 0.0000 0
M  V30 5 C -0.3906 0.5859 0.0000 0
M  V30 6 C 0.7812 1.1719 0.0000 0
M  V30 7 C 1.9531 -0.7812 0.0000 0
M  V30 8 N 0.7812 -1.5625 0.0000 0
M  V30 9 N 1.9531 0.3906 0.0000 0
M  V30 10 H -3.5156 -0.1953 0.0000 0
M  V30 11 H -2.1484 2.1484 0.0000 0
M  V30 12 H -1.9531 -2.3438 0.0000 0
M  V30 13 H 0.9766 2.3438 0.0000 0
M  V30 14 H 2.9297 -1.3672 0.0000 0
M  V30 15 H 2.7344 0.9766 0.0000 0
M  V30 END ATOM
M  V30 BEGIN BOND
M  V30 1 3 1 2
M  V30 2 1 1 3
M  V30 3 1 1 10
M  V30 4 3 2 4
M  V30 5 1 2 12
M  V30 6 1 3 5
M  V30 7 1 3 11
M  V30 8 3 4 5
M  V30 9 2 4 8
M  V30 10 1 5 6
M  V30 11 1 6 9
M  V30 12 1 6 13
M  V30 13 1 7 8
M  V30 14 1 7 9
M  V30 15 1 7 14
M  V30 16 1 9 15
M  V30 END BOND
M  V30 END CTAB
M  END
>  <ID>
948
$$$$
Structure_949
Score 	 8.0, smilesprid 	smiles	 smilestrue 	smiles	 similartanimoto 	0	 similardice 	0

   15   16  0  0  0  0            999 V3000
M  V30 BEGIN CTAB
M  V30 COUNTS 15 16 0 0 0
M  V30 BEGIN ATOM
M  V30 1 C -2.5391 -0.1953 0.0000 0
M  V30 2 C -1.7578 -1.3672 0.0000 0
M  V30 3 C -1.7578 0.9766 0.0000 0
M  V30 4 C -0.3906 -0.7812 0.0000 0
M  V30 5 C -0.3906 0.5859 0.0000 0
M  V30 6 C 0.7812 1.1719 0.0000 0
M  V30 7 C 1.9531 -0.7812 0.0000 0
M  V30 8 N 0.7812 -1.5625 0.0000 0
M  V30 9 N 1.9531 0.3906 0.0000 0
M  V30 10 H -3.5156 -0.1953 0.0000 0
M  V30 11 H -2.1484 2.1484 0.0000 0
M  V30 12 H -1.9531 -2.3438 0.0000 0
M  V30 13 H 0.9766 2.3438 0.0000 0
M  V30 14 H 2.9297 -1.3672 0.0000 0
M  V30 15 H 2.7344 0.9766 0.0000 0
M  V30 END ATOM
M  V30 BEGIN BOND
M  V30 1 1 1 2
M  V30 2 2 1 3
M  V30 3 1 1 10
M  V30 4 3 2 4
M  V30 5 1 2 12
M  V30 6 1 3 5
M  V30 7 1 3 11
M  V30 8 3 4 5
M  V30 9 2 4 8
M  V30 10 1 5 6
M  V30 11 1 6 9
M  V30 12 1 6 13
M  V30 13 1 7 8
M  V30 14 1 7 9
M  V30 15 1 7 14
M  V30 16 1 9 15
M  V30 END BOND
M  V30 END CTAB
M  END
>  <ID>
949
$$$$
Structure_950
Score 	 10.0, smilesprid 	smiles	 smilestrue 	smiles	 similartanimoto 	0	 similardice 	0

   15   16  0  0  0  0            999 V3000
M  V30 BEGIN CTAB
M  V30 COUNTS 15 16 0 0 0
M  V30 BEGIN ATOM
M  V30 1 C -2.5391 -0.1953 0.0000 0
M  V30 2 C -1.7578 -1.3672 0.0000 0
M  V30 3 C -1.7578 0.9766 0.0000 0
M  V30 4 C -0.3906 -0.7812 0.0000 0
M  V30 5 C -0.3906 0.5859 0.0000 0
M  V30 6 C 0.7812 1.1719 0.0000 0
M  V30 7 C 1.9531 -0.7812 0.0000 0
M  V30 8 N 0.7812 -1.5625 0.0000 0
M  V30 9 N 1.9531 0.3906 0.0000 0
M  V30 10 H -3.5156 -0.1953 0.0000 0
M  V30 11 H -2.1484 2.1484 0.0000 0
M  V30 12 H -1.9531 -2.3438 0.0000 0
M  V30 13 H 0.9766 2.3438 0.0000 0
M  V30 14 H 2.9297 -1.3672 0.0000 0
M  V30 15 H 2.7344 0.9766 0.0000 0
M  V30 END ATOM
M  V30 BEGIN BOND
M  V30 1 2 1 2
M  V30 2 2 1 3
M  V30 3 1 1 10
M  V30 4 3 2 4
M  V30 5 1 2 12
M  V30 6 1 3 5
M  V30 7 1 3 11
M  V30 8 3 4 5
M  V30 9 2 4 8
M  V30 10 1 5 6
M  V30 11 1 6 9
M  V30 12 1 6 13
M  V30 13 1 7 8
M  V30 14 1 7 9
M  V30 15 1 7 14
M  V30 16 1 9 15
M  V30 END BOND
M  V30 END CTAB
M  END
>  <ID>
950
$$$$
Structure_951
Score 	 12.0, smilesprid 	smiles	 smilestrue 	smiles	 similartanimoto 	0	 similardice 	0

   15   16  0  0  0  0            999 V3000
M  V30 BEGIN CTAB
M  V30 COUNTS 15 16 0 0 0
M  V30 BEGIN ATOM
M  V30 1 C -2.5391 -0.1953 0.0000 0
M  V30 2 C -1.7578 -1.3672 0.0000 0
M  V30 3 C -1.7578 0.9766 0.0000 0
M  V30 4 C -0.3906 -0.7812 0.0000 0
M  V30 5 C -0.3906 0.5859 0.0000 0
M  V30 6 C 0.7812 1.1719 0.0000 0
M  V30 7 C 1.9531 -0.7812 0.0000 0
M  V30 8 N 0.7812 -1.5625 0.0000 0
M  V30 9 N 1.9531 0.3906 0.0000 0
M  V30 10 H -3.5156 -0.1953 0.0000 0
M  V30 11 H -2.1484 2.1484 0.0000 0
M  V30 12 H -1.9531 -2.3438 0.0000 0
M  V30 13 H 0.9766 2.3438 0.0000 0
M  V30 14 H 2.9297 -1.3672 0.0000 0
M  V30 15 H 2.7344 0.9766 0.0000 0
M  V30 END ATOM
M  V30 BEGIN BOND
M  V30 1 3 1 2
M  V30 2 2 1 3
M  V30 3 1 1 10
M  V30 4 3 2 4
M  V30 5 1 2 12
M  V30 6 1 3 5
M  V30 7 1 3 11
M  V30 8 3 4 5
M  V30 9 2 4 8
M  V30 10 1 5 6
M  V30 11 1 6 9
M  V30 12 1 6 13
M  V30 13 1 7 8
M  V30 14 1 7 9
M  V30 15 1 7 14
M  V30 16 1 9 15
M  V30 END BOND
M  V30 END CTAB
M  END
>  <ID>
951
$$$$
Structure_952
Score 	 10.0, smilesprid 	smiles	 smilestrue 	smiles	 similartanimoto 	0	 similardice 	0

   15   16  0  0  0  0            999 V3000
M  V30 BEGIN CTAB
M  V30 COUNTS 15 16 0 0 0
M  V30 BEGIN ATOM
M  V30 1 C -2.5391 -0.1953 0.0000 0
M  V30 2 C -1.7578 -1.3672 0.0000 0
M  V30 3 C -1.7578 0.9766 0.0000 0
M  V30 4 C -0.3906 -0.7812 0.0000 0
M  V30 5 C -0.3906 0.5859 0.0000 0
M  V30 6 C 0.7812 1.1719 0.0000 0
M  V30 7 C 1.9531 -0.7812 0.0000 0
M  V30 8 N 0.7812 -1.5625 0.0000 0
M  V30 9 N 1.9531 0.3906 0.0000 0
M  V30 10 H -3.5156 -0.1953 0.0000 0
M  V30 11 H -2.1484 2.1484 0.0000 0
M  V30 12 H -1.9531 -2.3438 0.0000 0
M  V30 13 H 0.9766 2.3438 0.0000 0
M  V30 14 H 2.9297 -1.3672 0.0000 0
M  V30 15 H 2.7344 0.9766 0.0000 0
M  V30 END ATOM
M  V30 BEGIN BOND
M  V30 1 1 1 2
M  V30 2 3 1 3
M  V30 3 1 1 10
M  V30 4 3 2 4
M  V30 5 1 2 12
M  V30 6 1 3 5
M  V30 7 1 3 11
M  V30 8 3 4 5
M  V30 9 2 4 8
M  V30 10 1 5 6
M  V30 11 1 6 9
M  V30 12 1 6 13
M  V30 13 1 7 8
M  V30 14 1 7 9
M  V30 15 1 7 14
M  V30 16 1 9 15
M  V30 END BOND
M  V30 END CTAB
M  END
>  <ID>
952
$$$$
Structure_953
Score 	 12.0, smilesprid 	smiles	 smilestrue 	smiles	 similartanimoto 	0	 similardice 	0

   15   16  0  0  0  0            999 V3000
M  V30 BEGIN CTAB
M  V30 COUNTS 15 16 0 0 0
M  V30 BEGIN ATOM
M  V30 1 C -2.5391 -0.1953 0.0000 0
M  V30 2 C -1.7578 -1.3672 0.0000 0
M  V30 3 C -1.7578 0.9766 0.0000 0
M  V30 4 C -0.3906 -0.7812 0.0000 0
M  V30 5 C -0.3906 0.5859 0.0000 0
M  V30 6 C 0.7812 1.1719 0.0000 0
M  V30 7 C 1.9531 -0.7812 0.0000 0
M  V30 8 N 0.7812 -1.5625 0.0000 0
M  V30 9 N 1.9531 0.3906 0.0000 0
M  V30 10 H -3.5156 -0.1953 0.0000 0
M  V30 11 H -2.1484 2.1484 0.0000 0
M  V30 12 H -1.9531 -2.3438 0.0000 0
M  V30 13 H 0.9766 2.3438 0.0000 0
M  V30 14 H 2.9297 -1.3672 0.0000 0
M  V30 15 H 2.7344 0.9766 0.0000 0
M  V30 END ATOM
M  V30 BEGIN BOND
M  V30 1 2 1 2
M  V30 2 3 1 3
M  V30 3 1 1 10
M  V30 4 3 2 4
M  V30 5 1 2 12
M  V30 6 1 3 5
M  V30 7 1 3 11
M  V30 8 3 4 5
M  V30 9 2 4 8
M  V30 10 1 5 6
M  V30 11 1 6 9
M  V30 12 1 6 13
M  V30 13 1 7 8
M  V30 14 1 7 9
M  V30 15 1 7 14
M  V30 16 1 9 15
M  V30 END BOND
M  V30 END CTAB
M  END
>  <ID>
953
$$$$
Structure_954
Score 	 14.0, smilesprid 	smiles	 smilestrue 	smiles	 similartanimoto 	0	 similardice 	0

   15   16  0  0  0  0            999 V3000
M  V30 BEGIN CTAB
M  V30 COUNTS 15 16 0 0 0
M  V30 BEGIN ATOM
M  V30 1 C -2.5391 -0.1953 0.0000 0
M  V30 2 C -1.7578 -1.3672 0.0000 0
M  V30 3 C -1.7578 0.9766 0.0000 0
M  V30 4 C -0.3906 -0.7812 0.0000 0
M  V30 5 C -0.3906 0.5859 0.0000 0
M  V30 6 C 0.7812 1.1719 0.0000 0
M  V30 7 C 1.9531 -0.7812 0.0000 0
M  V30 8 N 0.7812 -1.5625 0.0000 0
M  V30 9 N 1.9531 0.3906 0.0000 0
M  V30 10 H -3.5156 -0.1953 0.0000 0
M  V30 11 H -2.1484 2.1484 0.0000 0
M  V30 12 H -1.9531 -2.3438 0.0000 0
M  V30 13 H 0.9766 2.3438 0.0000 0
M  V30 14 H 2.9297 -1.3672 0.0000 0
M  V30 15 H 2.7344 0.9766 0.0000 0
M  V30 END ATOM
M  V30 BEGIN BOND
M  V30 1 3 1 2
M  V30 2 3 1 3
M  V30 3 1 1 10
M  V30 4 3 2 4
M  V30 5 1 2 12
M  V30 6 1 3 5
M  V30 7 1 3 11
M  V30 8 3 4 5
M  V30 9 2 4 8
M  V30 10 1 5 6
M  V30 11 1 6 9
M  V30 12 1 6 13
M  V30 13 1 7 8
M  V30 14 1 7 9
M  V30 15 1 7 14
M  V30 16 1 9 15
M  V30 END BOND
M  V30 END CTAB
M  END
>  <ID>
954
$$$$
Structure_955
Score 	 10.0, smilesprid 	smiles	 smilestrue 	smiles	 similartanimoto 	0	 similardice 	0

   15   16  0  0  0  0            999 V3000
M  V30 BEGIN CTAB
M  V30 COUNTS 15 16 0 0 0
M  V30 BEGIN ATOM
M  V30 1 C -2.5391 -0.1953 0.0000 0
M  V30 2 C -1.7578 -1.3672 0.0000 0
M  V30 3 C -1.7578 0.9766 0.0000 0
M  V30 4 C -0.3906 -0.7812 0.0000 0
M  V30 5 C -0.3906 0.5859 0.0000 0
M  V30 6 C 0.7812 1.1719 0.0000 0
M  V30 7 C 1.9531 -0.7812 0.0000 0
M  V30 8 N 0.7812 -1.5625 0.0000 0
M  V30 9 N 1.9531 0.3906 0.0000 0
M  V30 10 H -3.5156 -0.1953 0.0000 0
M  V30 11 H -2.1484 2.1484 0.0000 0
M  V30 12 H -1.9531 -2.3438 0.0000 0
M  V30 13 H 0.9766 2.3438 0.0000 0
M  V30 14 H 2.9297 -1.3672 0.0000 0
M  V30 15 H 2.7344 0.9766 0.0000 0
M  V30 END ATOM
M  V30 BEGIN BOND
M  V30 1 1 1 2
M  V30 2 1 1 3
M  V30 3 1 1 10
M  V30 4 3 2 4
M  V30 5 1 2 12
M  V30 6 2 3 5
M  V30 7 1 3 11
M  V30 8 3 4 5
M  V30 9 2 4 8
M  V30 10 1 5 6
M  V30 11 1 6 9
M  V30 12 1 6 13
M  V30 13 1 7 8
M  V30 14 1 7 9
M  V30 15 1 7 14
M  V30 16 1 9 15
M  V30 END BOND
M  V30 END CTAB
M  END
>  <ID>
955
$$$$
Structure_956
Score 	 10.0, smilesprid 	smiles	 smilestrue 	smiles	 similartanimoto 	0	 similardice 	0

   15   16  0  0  0  0            999 V3000
M  V30 BEGIN CTAB
M  V30 COUNTS 15 16 0 0 0
M  V30 BEGIN ATOM
M  V30 1 C -2.5391 -0.1953 0.0000 0
M  V30 2 C -1.7578 -1.3672 0.0000 0
M  V30 3 C -1.7578 0.9766 0.0000 0
M  V30 4 C -0.3906 -0.7812 0.0000 0
M  V30 5 C -0.3906 0.5859 0.0000 0
M  V30 6 C 0.7812 1.1719 0.0000 0
M  V30 7 C 1.9531 -0.7812 0.0000 0
M  V30 8 N 0.7812 -1.5625 0.0000 0
M  V30 9 N 1.9531 0.3906 0.0000 0
M  V30 10 H -3.5156 -0.1953 0.0000 0
M  V30 11 H -2.1484 2.1484 0.0000 0
M  V30 12 H -1.9531 -2.3438 0.0000 0
M  V30 13 H 0.9766 2.3438 0.0000 0
M  V30 14 H 2.9297 -1.3672 0.0000 0
M  V30 15 H 2.7344 0.9766 0.0000 0
M  V30 END ATOM
M  V30 BEGIN BOND
M  V30 1 2 1 2
M  V30 2 1 1 3
M  V30 3 1 1 10
M  V30 4 3 2 4
M  V30 5 1 2 12
M  V30 6 2 3 5
M  V30 7 1 3 11
M  V30 8 3 4 5
M  V30 9 2 4 8
M  V30 10 1 5 6
M  V30 11 1 6 9
M  V30 12 1 6 13
M  V30 13 1 7 8
M  V30 14 1 7 9
M  V30 15 1 7 14
M  V30 16 1 9 15
M  V30 END BOND
M  V30 END CTAB
M  END
>  <ID>
956
$$$$
Structure_957
Score 	 12.0, smilesprid 	smiles	 smilestrue 	smiles	 similartanimoto 	0	 similardice 	0

   15   16  0  0  0  0            999 V3000
M  V30 BEGIN CTAB
M  V30 COUNTS 15 16 0 0 0
M  V30 BEGIN ATOM
M  V30 1 C -2.5391 -0.1953 0.0000 0
M  V30 2 C -1.7578 -1.3672 0.0000 0
M  V30 3 C -1.7578 0.9766 0.0000 0
M  V30 4 C -0.3906 -0.7812 0.0000 0
M  V30 5 C -0.3906 0.5859 0.0000 0
M  V30 6 C 0.7812 1.1719 0.0000 0
M  V30 7 C 1.9531 -0.7812 0.0000 0
M  V30 8 N 0.7812 -1.5625 0.0000 0
M  V30 9 N 1.9531 0.3906 0.0000 0
M  V30 10 H -3.5156 -0.1953 0.0000 0
M  V30 11 H -2.1484 2.1484 0.0000 0
M  V30 12 H -1.9531 -2.3438 0.0000 0
M  V30 13 H 0.9766 2.3438 0.0000 0
M  V30 14 H 2.9297 -1.3672 0.0000 0
M  V30 15 H 2.7344 0.9766 0.0000 0
M  V30 END ATOM
M  V30 BEGIN BOND
M  V30 1 3 1 2
M  V30 2 1 1 3
M  V30 3 1 1 10
M  V30 4 3 2 4
M  V30 5 1 2 12
M  V30 6 2 3 5
M  V30 7 1 3 11
M  V30 8 3 4 5
M  V30 9 2 4 8
M  V30 10 1 5 6
M  V30 11 1 6 9
M  V30 12 1 6 13
M  V30 13 1 7 8
M  V30 14 1 7 9
M  V30 15 1 7 14
M  V30 16 1 9 15
M  V30 END BOND
M  V30 END CTAB
M  END
>  <ID>
957
$$$$
Structure_958
Score 	 10.0, smilesprid 	smiles	 smilestrue 	smiles	 similartanimoto 	0	 similardice 	0

   15   16  0  0  0  0            999 V3000
M  V30 BEGIN CTAB
M  V30 COUNTS 15 16 0 0 0
M  V30 BEGIN ATOM
M  V30 1 C -2.5391 -0.1953 0.0000 0
M  V30 2 C -1.7578 -1.3672 0.0000 0
M  V30 3 C -1.7578 0.9766 0.0000 0
M  V30 4 C -0.3906 -0.7812 0.0000 0
M  V30 5 C -0.3906 0.5859 0.0000 0
M  V30 6 C 0.7812 1.1719 0.0000 0
M  V30 7 C 1.9531 -0.7812 0.0000 0
M  V30 8 N 0.7812 -1.5625 0.0000 0
M  V30 9 N 1.9531 0.3906 0.0000 0
M  V30 10 H -3.5156 -0.1953 0.0000 0
M  V30 11 H -2.1484 2.1484 0.0000 0
M  V30 12 H -1.9531 -2.3438 0.0000 0
M  V30 13 H 0.9766 2.3438 0.0000 0
M  V30 14 H 2.9297 -1.3672 0.0000 0
M  V30 15 H 2.7344 0.9766 0.0000 0
M  V30 END ATOM
M  V30 BEGIN BOND
M  V30 1 1 1 2
M  V30 2 2 1 3
M  V30 3 1 1 10
M  V30 4 3 2 4
M  V30 5 1 2 12
M  V30 6 2 3 5
M  V30 7 1 3 11
M  V30 8 3 4 5
M  V30 9 2 4 8
M  V30 10 1 5 6
M  V30 11 1 6 9
M  V30 12 1 6 13
M  V30 13 1 7 8
M  V30 14 1 7 9
M  V30 15 1 7 14
M  V30 16 1 9 15
M  V30 END BOND
M  V30 END CTAB
M  END
>  <ID>
958
$$$$
Structure_959
Score 	 12.0, smilesprid 	smiles	 smilestrue 	smiles	 similartanimoto 	0	 similardice 	0

   15   16  0  0  0  0            999 V3000
M  V30 BEGIN CTAB
M  V30 COUNTS 15 16 0 0 0
M  V30 BEGIN ATOM
M  V30 1 C -2.5391 -0.1953 0.0000 0
M  V30 2 C -1.7578 -1.3672 0.0000 0
M  V30 3 C -1.7578 0.9766 0.0000 0
M  V30 4 C -0.3906 -0.7812 0.0000 0
M  V30 5 C -0.3906 0.5859 0.0000 0
M  V30 6 C 0.7812 1.1719 0.0000 0
M  V30 7 C 1.9531 -0.7812 0.0000 0
M  V30 8 N 0.7812 -1.5625 0.0000 0
M  V30 9 N 1.9531 0.3906 0.0000 0
M  V30 10 H -3.5156 -0.1953 0.0000 0
M  V30 11 H -2.1484 2.1484 0.0000 0
M  V30 12 H -1.9531 -2.3438 0.0000 0
M  V30 13 H 0.9766 2.3438 0.0000 0
M  V30 14 H 2.9297 -1.3672 0.0000 0
M  V30 15 H 2.7344 0.9766 0.0000 0
M  V30 END ATOM
M  V30 BEGIN BOND
M  V30 1 2 1 2
M  V30 2 2 1 3
M  V30 3 1 1 10
M  V30 4 3 2 4
M  V30 5 1 2 12
M  V30 6 2 3 5
M  V30 7 1 3 11
M  V30 8 3 4 5
M  V30 9 2 4 8
M  V30 10 1 5 6
M  V30 11 1 6 9
M  V30 12 1 6 13
M  V30 13 1 7 8
M  V30 14 1 7 9
M  V30 15 1 7 14
M  V30 16 1 9 15
M  V30 END BOND
M  V30 END CTAB
M  END
>  <ID>
959
$$$$
Structure_960
Score 	 14.0, smilesprid 	smiles	 smilestrue 	smiles	 similartanimoto 	0	 similardice 	0

   15   16  0  0  0  0            999 V3000
M  V30 BEGIN CTAB
M  V30 COUNTS 15 16 0 0 0
M  V30 BEGIN ATOM
M  V30 1 C -2.5391 -0.1953 0.0000 0
M  V30 2 C -1.7578 -1.3672 0.0000 0
M  V30 3 C -1.7578 0.9766 0.0000 0
M  V30 4 C -0.3906 -0.7812 0.0000 0
M  V30 5 C -0.3906 0.5859 0.0000 0
M  V30 6 C 0.7812 1.1719 0.0000 0
M  V30 7 C 1.9531 -0.7812 0.0000 0
M  V30 8 N 0.7812 -1.5625 0.0000 0
M  V30 9 N 1.9531 0.3906 0.0000 0
M  V30 10 H -3.5156 -0.1953 0.0000 0
M  V30 11 H -2.1484 2.1484 0.0000 0
M  V30 12 H -1.9531 -2.3438 0.0000 0
M  V30 13 H 0.9766 2.3438 0.0000 0
M  V30 14 H 2.9297 -1.3672 0.0000 0
M  V30 15 H 2.7344 0.9766 0.0000 0
M  V30 END ATOM
M  V30 BEGIN BOND
M  V30 1 3 1 2
M  V30 2 2 1 3
M  V30 3 1 1 10
M  V30 4 3 2 4
M  V30 5 1 2 12
M  V30 6 2 3 5
M  V30 7 1 3 11
M  V30 8 3 4 5
M  V30 9 2 4 8
M  V30 10 1 5 6
M  V30 11 1 6 9
M  V30 12 1 6 13
M  V30 13 1 7 8
M  V30 14 1 7 9
M  V30 15 1 7 14
M  V30 16 1 9 15
M  V30 END BOND
M  V30 END CTAB
M  END
>  <ID>
960
$$$$
Structure_961
Score 	 12.0, smilesprid 	smiles	 smilestrue 	smiles	 similartanimoto 	0	 similardice 	0

   15   16  0  0  0  0            999 V3000
M  V30 BEGIN CTAB
M  V30 COUNTS 15 16 0 0 0
M  V30 BEGIN ATOM
M  V30 1 C -2.5391 -0.1953 0.0000 0
M  V30 2 C -1.7578 -1.3672 0.0000 0
M  V30 3 C -1.7578 0.9766 0.0000 0
M  V30 4 C -0.3906 -0.7812 0.0000 0
M  V30 5 C -0.3906 0.5859 0.0000 0
M  V30 6 C 0.7812 1.1719 0.0000 0
M  V30 7 C 1.9531 -0.7812 0.0000 0
M  V30 8 N 0.7812 -1.5625 0.0000 0
M  V30 9 N 1.9531 0.3906 0.0000 0
M  V30 10 H -3.5156 -0.1953 0.0000 0
M  V30 11 H -2.1484 2.1484 0.0000 0
M  V30 12 H -1.9531 -2.3438 0.0000 0
M  V30 13 H 0.9766 2.3438 0.0000 0
M  V30 14 H 2.9297 -1.3672 0.0000 0
M  V30 15 H 2.7344 0.9766 0.0000 0
M  V30 END ATOM
M  V30 BEGIN BOND
M  V30 1 1 1 2
M  V30 2 3 1 3
M  V30 3 1 1 10
M  V30 4 3 2 4
M  V30 5 1 2 12
M  V30 6 2 3 5
M  V30 7 1 3 11
M  V30 8 3 4 5
M  V30 9 2 4 8
M  V30 10 1 5 6
M  V30 11 1 6 9
M  V30 12 1 6 13
M  V30 13 1 7 8
M  V30 14 1 7 9
M  V30 15 1 7 14
M  V30 16 1 9 15
M  V30 END BOND
M  V30 END CTAB
M  END
>  <ID>
961
$$$$
Structure_962
Score 	 14.0, smilesprid 	smiles	 smilestrue 	smiles	 similartanimoto 	0	 similardice 	0

   15   16  0  0  0  0            999 V3000
M  V30 BEGIN CTAB
M  V30 COUNTS 15 16 0 0 0
M  V30 BEGIN ATOM
M  V30 1 C -2.5391 -0.1953 0.0000 0
M  V30 2 C -1.7578 -1.3672 0.0000 0
M  V30 3 C -1.7578 0.9766 0.0000 0
M  V30 4 C -0.3906 -0.7812 0.0000 0
M  V30 5 C -0.3906 0.5859 0.0000 0
M  V30 6 C 0.7812 1.1719 0.0000 0
M  V30 7 C 1.9531 -0.7812 0.0000 0
M  V30 8 N 0.7812 -1.5625 0.0000 0
M  V30 9 N 1.9531 0.3906 0.0000 0
M  V30 10 H -3.5156 -0.1953 0.0000 0
M  V30 11 H -2.1484 2.1484 0.0000 0
M  V30 12 H -1.9531 -2.3438 0.0000 0
M  V30 13 H 0.9766 2.3438 0.0000 0
M  V30 14 H 2.9297 -1.3672 0.0000 0
M  V30 15 H 2.7344 0.9766 0.0000 0
M  V30 END ATOM
M  V30 BEGIN BOND
M  V30 1 2 1 2
M  V30 2 3 1 3
M  V30 3 1 1 10
M  V30 4 3 2 4
M  V30 5 1 2 12
M  V30 6 2 3 5
M  V30 7 1 3 11
M  V30 8 3 4 5
M  V30 9 2 4 8
M  V30 10 1 5 6
M  V30 11 1 6 9
M  V30 12 1 6 13
M  V30 13 1 7 8
M  V30 14 1 7 9
M  V30 15 1 7 14
M  V30 16 1 9 15
M  V30 END BOND
M  V30 END CTAB
M  END
>  <ID>
962
$$$$
Structure_963
Score 	 16.0, smilesprid 	smiles	 smilestrue 	smiles	 similartanimoto 	0	 similardice 	0

   15   16  0  0  0  0            999 V3000
M  V30 BEGIN CTAB
M  V30 COUNTS 15 16 0 0 0
M  V30 BEGIN ATOM
M  V30 1 C -2.5391 -0.1953 0.0000 0
M  V30 2 C -1.7578 -1.3672 0.0000 0
M  V30 3 C -1.7578 0.9766 0.0000 0
M  V30 4 C -0.3906 -0.7812 0.0000 0
M  V30 5 C -0.3906 0.5859 0.0000 0
M  V30 6 C 0.7812 1.1719 0.0000 0
M  V30 7 C 1.9531 -0.7812 0.0000 0
M  V30 8 N 0.7812 -1.5625 0.0000 0
M  V30 9 N 1.9531 0.3906 0.0000 0
M  V30 10 H -3.5156 -0.1953 0.0000 0
M  V30 11 H -2.1484 2.1484 0.0000 0
M  V30 12 H -1.9531 -2.3438 0.0000 0
M  V30 13 H 0.9766 2.3438 0.0000 0
M  V30 14 H 2.9297 -1.3672 0.0000 0
M  V30 15 H 2.7344 0.9766 0.0000 0
M  V30 END ATOM
M  V30 BEGIN BOND
M  V30 1 3 1 2
M  V30 2 3 1 3
M  V30 3 1 1 10
M  V30 4 3 2 4
M  V30 5 1 2 12
M  V30 6 2 3 5
M  V30 7 1 3 11
M  V30 8 3 4 5
M  V30 9 2 4 8
M  V30 10 1 5 6
M  V30 11 1 6 9
M  V30 12 1 6 13
M  V30 13 1 7 8
M  V30 14 1 7 9
M  V30 15 1 7 14
M  V30 16 1 9 15
M  V30 END BOND
M  V30 END CTAB
M  END
>  <ID>
963
$$$$
Structure_964
Score 	 12.0, smilesprid 	smiles	 smilestrue 	smiles	 similartanimoto 	0	 similardice 	0

   15   16  0  0  0  0            999 V3000
M  V30 BEGIN CTAB
M  V30 COUNTS 15 16 0 0 0
M  V30 BEGIN ATOM
M  V30 1 C -2.5391 -0.1953 0.0000 0
M  V30 2 C -1.7578 -1.3672 0.0000 0
M  V30 3 C -1.7578 0.9766 0.0000 0
M  V30 4 C -0.3906 -0.7812 0.0000 0
M  V30 5 C -0.3906 0.5859 0.0000 0
M  V30 6 C 0.7812 1.1719 0.0000 0
M  V30 7 C 1.9531 -0.7812 0.0000 0
M  V30 8 N 0.7812 -1.5625 0.0000 0
M  V30 9 N 1.9531 0.3906 0.0000 0
M  V30 10 H -3.5156 -0.1953 0.0000 0
M  V30 11 H -2.1484 2.1484 0.0000 0
M  V30 12 H -1.9531 -2.3438 0.0000 0
M  V30 13 H 0.9766 2.3438 0.0000 0
M  V30 14 H 2.9297 -1.3672 0.0000 0
M  V30 15 H 2.7344 0.9766 0.0000 0
M  V30 END ATOM
M  V30 BEGIN BOND
M  V30 1 1 1 2
M  V30 2 1 1 3
M  V30 3 1 1 10
M  V30 4 3 2 4
M  V30 5 1 2 12
M  V30 6 3 3 5
M  V30 7 1 3 11
M  V30 8 3 4 5
M  V30 9 2 4 8
M  V30 10 1 5 6
M  V30 11 1 6 9
M  V30 12 1 6 13
M  V30 13 1 7 8
M  V30 14 1 7 9
M  V30 15 1 7 14
M  V30 16 1 9 15
M  V30 END BOND
M  V30 END CTAB
M  END
>  <ID>
964
$$$$
Structure_965
Score 	 12.0, smilesprid 	smiles	 smilestrue 	smiles	 similartanimoto 	0	 similardice 	0

   15   16  0  0  0  0            999 V3000
M  V30 BEGIN CTAB
M  V30 COUNTS 15 16 0 0 0
M  V30 BEGIN ATOM
M  V30 1 C -2.5391 -0.1953 0.0000 0
M  V30 2 C -1.7578 -1.3672 0.0000 0
M  V30 3 C -1.7578 0.9766 0.0000 0
M  V30 4 C -0.3906 -0.7812 0.0000 0
M  V30 5 C -0.3906 0.5859 0.0000 0
M  V30 6 C 0.7812 1.1719 0.0000 0
M  V30 7 C 1.9531 -0.7812 0.0000 0
M  V30 8 N 0.7812 -1.5625 0.0000 0
M  V30 9 N 1.9531 0.3906 0.0000 0
M  V30 10 H -3.5156 -0.1953 0.0000 0
M  V30 11 H -2.1484 2.1484 0.0000 0
M  V30 12 H -1.9531 -2.3438 0.0000 0
M  V30 13 H 0.9766 2.3438 0.0000 0
M  V30 14 H 2.9297 -1.3672 0.0000 0
M  V30 15 H 2.7344 0.9766 0.0000 0
M  V30 END ATOM
M  V30 BEGIN BOND
M  V30 1 2 1 2
M  V30 2 1 1 3
M  V30 3 1 1 10
M  V30 4 3 2 4
M  V30 5 1 2 12
M  V30 6 3 3 5
M  V30 7 1 3 11
M  V30 8 3 4 5
M  V30 9 2 4 8
M  V30 10 1 5 6
M  V30 11 1 6 9
M  V30 12 1 6 13
M  V30 13 1 7 8
M  V30 14 1 7 9
M  V30 15 1 7 14
M  V30 16 1 9 15
M  V30 END BOND
M  V30 END CTAB
M  END
>  <ID>
965
$$$$
Structure_966
Score 	 14.0, smilesprid 	smiles	 smilestrue 	smiles	 similartanimoto 	0	 similardice 	0

   15   16  0  0  0  0            999 V3000
M  V30 BEGIN CTAB
M  V30 COUNTS 15 16 0 0 0
M  V30 BEGIN ATOM
M  V30 1 C -2.5391 -0.1953 0.0000 0
M  V30 2 C -1.7578 -1.3672 0.0000 0
M  V30 3 C -1.7578 0.9766 0.0000 0
M  V30 4 C -0.3906 -0.7812 0.0000 0
M  V30 5 C -0.3906 0.5859 0.0000 0
M  V30 6 C 0.7812 1.1719 0.0000 0
M  V30 7 C 1.9531 -0.7812 0.0000 0
M  V30 8 N 0.7812 -1.5625 0.0000 0
M  V30 9 N 1.9531 0.3906 0.0000 0
M  V30 10 H -3.5156 -0.1953 0.0000 0
M  V30 11 H -2.1484 2.1484 0.0000 0
M  V30 12 H -1.9531 -2.3438 0.0000 0
M  V30 13 H 0.9766 2.3438 0.0000 0
M  V30 14 H 2.9297 -1.3672 0.0000 0
M  V30 15 H 2.7344 0.9766 0.0000 0
M  V30 END ATOM
M  V30 BEGIN BOND
M  V30 1 3 1 2
M  V30 2 1 1 3
M  V30 3 1 1 10
M  V30 4 3 2 4
M  V30 5 1 2 12
M  V30 6 3 3 5
M  V30 7 1 3 11
M  V30 8 3 4 5
M  V30 9 2 4 8
M  V30 10 1 5 6
M  V30 11 1 6 9
M  V30 12 1 6 13
M  V30 13 1 7 8
M  V30 14 1 7 9
M  V30 15 1 7 14
M  V30 16 1 9 15
M  V30 END BOND
M  V30 END CTAB
M  END
>  <ID>
966
$$$$
Structure_967
Score 	 12.0, smilesprid 	smiles	 smilestrue 	smiles	 similartanimoto 	0	 similardice 	0

   15   16  0  0  0  0            999 V3000
M  V30 BEGIN CTAB
M  V30 COUNTS 15 16 0 0 0
M  V30 BEGIN ATOM
M  V30 1 C -2.5391 -0.1953 0.0000 0
M  V30 2 C -1.7578 -1.3672 0.0000 0
M  V30 3 C -1.7578 0.9766 0.0000 0
M  V30 4 C -0.3906 -0.7812 0.0000 0
M  V30 5 C -0.3906 0.5859 0.0000 0
M  V30 6 C 0.7812 1.1719 0.0000 0
M  V30 7 C 1.9531 -0.7812 0.0000 0
M  V30 8 N 0.7812 -1.5625 0.0000 0
M  V30 9 N 1.9531 0.3906 0.0000 0
M  V30 10 H -3.5156 -0.1953 0.0000 0
M  V30 11 H -2.1484 2.1484 0.0000 0
M  V30 12 H -1.9531 -2.3438 0.0000 0
M  V30 13 H 0.9766 2.3438 0.0000 0
M  V30 14 H 2.9297 -1.3672 0.0000 0
M  V30 15 H 2.7344 0.9766 0.0000 0
M  V30 END ATOM
M  V30 BEGIN BOND
M  V30 1 1 1 2
M  V30 2 2 1 3
M  V30 3 1 1 10
M  V30 4 3 2 4
M  V30 5 1 2 12
M  V30 6 3 3 5
M  V30 7 1 3 11
M  V30 8 3 4 5
M  V30 9 2 4 8
M  V30 10 1 5 6
M  V30 11 1 6 9
M  V30 12 1 6 13
M  V30 13 1 7 8
M  V30 14 1 7 9
M  V30 15 1 7 14
M  V30 16 1 9 15
M  V30 END BOND
M  V30 END CTAB
M  END
>  <ID>
967
$$$$
Structure_968
Score 	 14.0, smilesprid 	smiles	 smilestrue 	smiles	 similartanimoto 	0	 similardice 	0

   15   16  0  0  0  0            999 V3000
M  V30 BEGIN CTAB
M  V30 COUNTS 15 16 0 0 0
M  V30 BEGIN ATOM
M  V30 1 C -2.5391 -0.1953 0.0000 0
M  V30 2 C -1.7578 -1.3672 0.0000 0
M  V30 3 C -1.7578 0.9766 0.0000 0
M  V30 4 C -0.3906 -0.7812 0.0000 0
M  V30 5 C -0.3906 0.5859 0.0000 0
M  V30 6 C 0.7812 1.1719 0.0000 0
M  V30 7 C 1.9531 -0.7812 0.0000 0
M  V30 8 N 0.7812 -1.5625 0.0000 0
M  V30 9 N 1.9531 0.3906 0.0000 0
M  V30 10 H -3.5156 -0.1953 0.0000 0
M  V30 11 H -2.1484 2.1484 0.0000 0
M  V30 12 H -1.9531 -2.3438 0.0000 0
M  V30 13 H 0.9766 2.3438 0.0000 0
M  V30 14 H 2.9297 -1.3672 0.0000 0
M  V30 15 H 2.7344 0.9766 0.0000 0
M  V30 END ATOM
M  V30 BEGIN BOND
M  V30 1 2 1 2
M  V30 2 2 1 3
M  V30 3 1 1 10
M  V30 4 3 2 4
M  V30 5 1 2 12
M  V30 6 3 3 5
M  V30 7 1 3 11
M  V30 8 3 4 5
M  V30 9 2 4 8
M  V30 10 1 5 6
M  V30 11 1 6 9
M  V30 12 1 6 13
M  V30 13 1 7 8
M  V30 14 1 7 9
M  V30 15 1 7 14
M  V30 16 1 9 15
M  V30 END BOND
M  V30 END CTAB
M  END
>  <ID>
968
$$$$
Structure_969
Score 	 16.0, smilesprid 	smiles	 smilestrue 	smiles	 similartanimoto 	0	 similardice 	0

   15   16  0  0  0  0            999 V3000
M  V30 BEGIN CTAB
M  V30 COUNTS 15 16 0 0 0
M  V30 BEGIN ATOM
M  V30 1 C -2.5391 -0.1953 0.0000 0
M  V30 2 C -1.7578 -1.3672 0.0000 0
M  V30 3 C -1.7578 0.9766 0.0000 0
M  V30 4 C -0.3906 -0.7812 0.0000 0
M  V30 5 C -0.3906 0.5859 0.0000 0
M  V30 6 C 0.7812 1.1719 0.0000 0
M  V30 7 C 1.9531 -0.7812 0.0000 0
M  V30 8 N 0.7812 -1.5625 0.0000 0
M  V30 9 N 1.9531 0.3906 0.0000 0
M  V30 10 H -3.5156 -0.1953 0.0000 0
M  V30 11 H -2.1484 2.1484 0.0000 0
M  V30 12 H -1.9531 -2.3438 0.0000 0
M  V30 13 H 0.9766 2.3438 0.0000 0
M  V30 14 H 2.9297 -1.3672 0.0000 0
M  V30 15 H 2.7344 0.9766 0.0000 0
M  V30 END ATOM
M  V30 BEGIN BOND
M  V30 1 3 1 2
M  V30 2 2 1 3
M  V30 3 1 1 10
M  V30 4 3 2 4
M  V30 5 1 2 12
M  V30 6 3 3 5
M  V30 7 1 3 11
M  V30 8 3 4 5
M  V30 9 2 4 8
M  V30 10 1 5 6
M  V30 11 1 6 9
M  V30 12 1 6 13
M  V30 13 1 7 8
M  V30 14 1 7 9
M  V30 15 1 7 14
M  V30 16 1 9 15
M  V30 END BOND
M  V30 END CTAB
M  END
>  <ID>
969
$$$$
Structure_970
Score 	 14.0, smilesprid 	smiles	 smilestrue 	smiles	 similartanimoto 	0	 similardice 	0

   15   16  0  0  0  0            999 V3000
M  V30 BEGIN CTAB
M  V30 COUNTS 15 16 0 0 0
M  V30 BEGIN ATOM
M  V30 1 C -2.5391 -0.1953 0.0000 0
M  V30 2 C -1.7578 -1.3672 0.0000 0
M  V30 3 C -1.7578 0.9766 0.0000 0
M  V30 4 C -0.3906 -0.7812 0.0000 0
M  V30 5 C -0.3906 0.5859 0.0000 0
M  V30 6 C 0.7812 1.1719 0.0000 0
M  V30 7 C 1.9531 -0.7812 0.0000 0
M  V30 8 N 0.7812 -1.5625 0.0000 0
M  V30 9 N 1.9531 0.3906 0.0000 0
M  V30 10 H -3.5156 -0.1953 0.0000 0
M  V30 11 H -2.1484 2.1484 0.0000 0
M  V30 12 H -1.9531 -2.3438 0.0000 0
M  V30 13 H 0.9766 2.3438 0.0000 0
M  V30 14 H 2.9297 -1.3672 0.0000 0
M  V30 15 H 2.7344 0.9766 0.0000 0
M  V30 END ATOM
M  V30 BEGIN BOND
M  V30 1 1 1 2
M  V30 2 3 1 3
M  V30 3 1 1 10
M  V30 4 3 2 4
M  V30 5 1 2 12
M  V30 6 3 3 5
M  V30 7 1 3 11
M  V30 8 3 4 5
M  V30 9 2 4 8
M  V30 10 1 5 6
M  V30 11 1 6 9
M  V30 12 1 6 13
M  V30 13 1 7 8
M  V30 14 1 7 9
M  V30 15 1 7 14
M  V30 16 1 9 15
M  V30 END BOND
M  V30 END CTAB
M  END
>  <ID>
970
$$$$
Structure_971
Score 	 16.0, smilesprid 	smiles	 smilestrue 	smiles	 similartanimoto 	0	 similardice 	0

   15   16  0  0  0  0            999 V3000
M  V30 BEGIN CTAB
M  V30 COUNTS 15 16 0 0 0
M  V30 BEGIN ATOM
M  V30 1 C -2.5391 -0.1953 0.0000 0
M  V30 2 C -1.7578 -1.3672 0.0000 0
M  V30 3 C -1.7578 0.9766 0.0000 0
M  V30 4 C -0.3906 -0.7812 0.0000 0
M  V30 5 C -0.3906 0.5859 0.0000 0
M  V30 6 C 0.7812 1.1719 0.0000 0
M  V30 7 C 1.9531 -0.7812 0.0000 0
M  V30 8 N 0.7812 -1.5625 0.0000 0
M  V30 9 N 1.9531 0.3906 0.0000 0
M  V30 10 H -3.5156 -0.1953 0.0000 0
M  V30 11 H -2.1484 2.1484 0.0000 0
M  V30 12 H -1.9531 -2.3438 0.0000 0
M  V30 13 H 0.9766 2.3438 0.0000 0
M  V30 14 H 2.9297 -1.3672 0.0000 0
M  V30 15 H 2.7344 0.9766 0.0000 0
M  V30 END ATOM
M  V30 BEGIN BOND
M  V30 1 2 1 2
M  V30 2 3 1 3
M  V30 3 1 1 10
M  V30 4 3 2 4
M  V30 5 1 2 12
M  V30 6 3 3 5
M  V30 7 1 3 11
M  V30 8 3 4 5
M  V30 9 2 4 8
M  V30 10 1 5 6
M  V30 11 1 6 9
M  V30 12 1 6 13
M  V30 13 1 7 8
M  V30 14 1 7 9
M  V30 15 1 7 14
M  V30 16 1 9 15
M  V30 END BOND
M  V30 END CTAB
M  END
>  <ID>
971
$$$$
Structure_972
Score 	 18.0, smilesprid 	smiles	 smilestrue 	smiles	 similartanimoto 	0	 similardice 	0

   15   16  0  0  0  0            999 V3000
M  V30 BEGIN CTAB
M  V30 COUNTS 15 16 0 0 0
M  V30 BEGIN ATOM
M  V30 1 C -2.5391 -0.1953 0.0000 0
M  V30 2 C -1.7578 -1.3672 0.0000 0
M  V30 3 C -1.7578 0.9766 0.0000 0
M  V30 4 C -0.3906 -0.7812 0.0000 0
M  V30 5 C -0.3906 0.5859 0.0000 0
M  V30 6 C 0.7812 1.1719 0.0000 0
M  V30 7 C 1.9531 -0.7812 0.0000 0
M  V30 8 N 0.7812 -1.5625 0.0000 0
M  V30 9 N 1.9531 0.3906 0.0000 0
M  V30 10 H -3.5156 -0.1953 0.0000 0
M  V30 11 H -2.1484 2.1484 0.0000 0
M  V30 12 H -1.9531 -2.3438 0.0000 0
M  V30 13 H 0.9766 2.3438 0.0000 0
M  V30 14 H 2.9297 -1.3672 0.0000 0
M  V30 15 H 2.7344 0.9766 0.0000 0
M  V30 END ATOM
M  V30 BEGIN BOND
M  V30 1 3 1 2
M  V30 2 3 1 3
M  V30 3 1 1 10
M  V30 4 3 2 4
M  V30 5 1 2 12
M  V30 6 3 3 5
M  V30 7 1 3 11
M  V30 8 3 4 5
M  V30 9 2 4 8
M  V30 10 1 5 6
M  V30 11 1 6 9
M  V30 12 1 6 13
M  V30 13 1 7 8
M  V30 14 1 7 9
M  V30 15 1 7 14
M  V30 16 1 9 15
M  V30 END BOND
M  V30 END CTAB
M  END
>  <ID>
972
$$$$
Structure_973
Score 	 4.0, smilesprid 	smiles	 smilestrue 	smiles	 similartanimoto 	0	 similardice 	0

   15   16  0  0  0  0            999 V3000
M  V30 BEGIN CTAB
M  V30 COUNTS 15 16 0 0 0
M  V30 BEGIN ATOM
M  V30 1 C -2.5391 -0.1953 0.0000 0
M  V30 2 C -1.7578 -1.3672 0.0000 0
M  V30 3 C -1.7578 0.9766 0.0000 0
M  V30 4 C -0.3906 -0.7812 0.0000 0
M  V30 5 C -0.3906 0.5859 0.0000 0
M  V30 6 C 0.7812 1.1719 0.0000 0
M  V30 7 C 1.9531 -0.7812 0.0000 0
M  V30 8 N 0.7812 -1.5625 0.0000 0
M  V30 9 N 1.9531 0.3906 0.0000 0
M  V30 10 H -3.5156 -0.1953 0.0000 0
M  V30 11 H -2.1484 2.1484 0.0000 0
M  V30 12 H -1.9531 -2.3438 0.0000 0
M  V30 13 H 0.9766 2.3438 0.0000 0
M  V30 14 H 2.9297 -1.3672 0.0000 0
M  V30 15 H 2.7344 0.9766 0.0000 0
M  V30 END ATOM
M  V30 BEGIN BOND
M  V30 1 1 1 2
M  V30 2 1 1 3
M  V30 3 1 1 10
M  V30 4 1 2 4
M  V30 5 1 2 12
M  V30 6 1 3 5
M  V30 7 1 3 11
M  V30 8 1 4 5
M  V30 9 2 4 8
M  V30 10 2 5 6
M  V30 11 1 6 9
M  V30 12 1 6 13
M  V30 13 1 7 8
M  V30 14 1 7 9
M  V30 15 1 7 14
M  V30 16 1 9 15
M  V30 END BOND
M  V30 END CTAB
M  END
>  <ID>
973
$$$$
Structure_974
Score 	 2.0, smilesprid 	smiles	 smilestrue 	smiles	 similartanimoto 	0	 similardice 	0

   15   16  0  0  0  0            999 V3000
M  V30 BEGIN CTAB
M  V30 COUNTS 15 16 0 0 0
M  V30 BEGIN ATOM
M  V30 1 C -2.5391 -0.1953 0.0000 0
M  V30 2 C -1.7578 -1.3672 0.0000 0
M  V30 3 C -1.7578 0.9766 0.0000 0
M  V30 4 C -0.3906 -0.7812 0.0000 0
M  V30 5 C -0.3906 0.5859 0.0000 0
M  V30 6 C 0.7812 1.1719 0.0000 0
M  V30 7 C 1.9531 -0.7812 0.0000 0
M  V30 8 N 0.7812 -1.5625 0.0000 0
M  V30 9 N 1.9531 0.3906 0.0000 0
M  V30 10 H -3.5156 -0.1953 0.0000 0
M  V30 11 H -2.1484 2.1484 0.0000 0
M  V30 12 H -1.9531 -2.3438 0.0000 0
M  V30 13 H 0.9766 2.3438 0.0000 0
M  V30 14 H 2.9297 -1.3672 0.0000 0
M  V30 15 H 2.7344 0.9766 0.0000 0
M  V30 END ATOM
M  V30 BEGIN BOND
M  V30 1 2 1 2
M  V30 2 1 1 3
M  V30 3 1 1 10
M  V30 4 1 2 4
M  V30 5 1 2 12
M  V30 6 1 3 5
M  V30 7 1 3 11
M  V30 8 1 4 5
M  V30 9 2 4 8
M  V30 10 2 5 6
M  V30 11 1 6 9
M  V30 12 1 6 13
M  V30 13 1 7 8
M  V30 14 1 7 9
M  V30 15 1 7 14
M  V30 16 1 9 15
M  V30 END BOND
M  V30 END CTAB
M  END
>  <ID>
974
$$$$
Structure_975
Score 	 4.0, smilesprid 	smiles	 smilestrue 	smiles	 similartanimoto 	0	 similardice 	0

   15   16  0  0  0  0            999 V3000
M  V30 BEGIN CTAB
M  V30 COUNTS 15 16 0 0 0
M  V30 BEGIN ATOM
M  V30 1 C -2.5391 -0.1953 0.0000 0
M  V30 2 C -1.7578 -1.3672 0.0000 0
M  V30 3 C -1.7578 0.9766 0.0000 0
M  V30 4 C -0.3906 -0.7812 0.0000 0
M  V30 5 C -0.3906 0.5859 0.0000 0
M  V30 6 C 0.7812 1.1719 0.0000 0
M  V30 7 C 1.9531 -0.7812 0.0000 0
M  V30 8 N 0.7812 -1.5625 0.0000 0
M  V30 9 N 1.9531 0.3906 0.0000 0
M  V30 10 H -3.5156 -0.1953 0.0000 0
M  V30 11 H -2.1484 2.1484 0.0000 0
M  V30 12 H -1.9531 -2.3438 0.0000 0
M  V30 13 H 0.9766 2.3438 0.0000 0
M  V30 14 H 2.9297 -1.3672 0.0000 0
M  V30 15 H 2.7344 0.9766 0.0000 0
M  V30 END ATOM
M  V30 BEGIN BOND
M  V30 1 3 1 2
M  V30 2 1 1 3
M  V30 3 1 1 10
M  V30 4 1 2 4
M  V30 5 1 2 12
M  V30 6 1 3 5
M  V30 7 1 3 11
M  V30 8 1 4 5
M  V30 9 2 4 8
M  V30 10 2 5 6
M  V30 11 1 6 9
M  V30 12 1 6 13
M  V30 13 1 7 8
M  V30 14 1 7 9
M  V30 15 1 7 14
M  V30 16 1 9 15
M  V30 END BOND
M  V30 END CTAB
M  END
>  <ID>
975
$$$$
Structure_976
Score 	 2.0, smilesprid 	smiles	 smilestrue 	smiles	 similartanimoto 	0	 similardice 	0

   15   16  0  0  0  0            999 V3000
M  V30 BEGIN CTAB
M  V30 COUNTS 15 16 0 0 0
M  V30 BEGIN ATOM
M  V30 1 C -2.5391 -0.1953 0.0000 0
M  V30 2 C -1.7578 -1.3672 0.0000 0
M  V30 3 C -1.7578 0.9766 0.0000 0
M  V30 4 C -0.3906 -0.7812 0.0000 0
M  V30 5 C -0.3906 0.5859 0.0000 0
M  V30 6 C 0.7812 1.1719 0.0000 0
M  V30 7 C 1.9531 -0.7812 0.0000 0
M  V30 8 N 0.7812 -1.5625 0.0000 0
M  V30 9 N 1.9531 0.3906 0.0000 0
M  V30 10 H -3.5156 -0.1953 0.0000 0
M  V30 11 H -2.1484 2.1484 0.0000 0
M  V30 12 H -1.9531 -2.3438 0.0000 0
M  V30 13 H 0.9766 2.3438 0.0000 0
M  V30 14 H 2.9297 -1.3672 0.0000 0
M  V30 15 H 2.7344 0.9766 0.0000 0
M  V30 END ATOM
M  V30 BEGIN BOND
M  V30 1 1 1 2
M  V30 2 2 1 3
M  V30 3 1 1 10
M  V30 4 1 2 4
M  V30 5 1 2 12
M  V30 6 1 3 5
M  V30 7 1 3 11
M  V30 8 1 4 5
M  V30 9 2 4 8
M  V30 10 2 5 6
M  V30 11 1 6 9
M  V30 12 1 6 13
M  V30 13 1 7 8
M  V30 14 1 7 9
M  V30 15 1 7 14
M  V30 16 1 9 15
M  V30 END BOND
M  V30 END CTAB
M  END
>  <ID>
976
$$$$
Structure_977
Score 	 2.0, smilesprid 	smiles	 smilestrue 	smiles	 similartanimoto 	0	 similardice 	0

   15   16  0  0  0  0            999 V3000
M  V30 BEGIN CTAB
M  V30 COUNTS 15 16 0 0 0
M  V30 BEGIN ATOM
M  V30 1 C -2.5391 -0.1953 0.0000 0
M  V30 2 C -1.7578 -1.3672 0.0000 0
M  V30 3 C -1.7578 0.9766 0.0000 0
M  V30 4 C -0.3906 -0.7812 0.0000 0
M  V30 5 C -0.3906 0.5859 0.0000 0
M  V30 6 C 0.7812 1.1719 0.0000 0
M  V30 7 C 1.9531 -0.7812 0.0000 0
M  V30 8 N 0.7812 -1.5625 0.0000 0
M  V30 9 N 1.9531 0.3906 0.0000 0
M  V30 10 H -3.5156 -0.1953 0.0000 0
M  V30 11 H -2.1484 2.1484 0.0000 0
M  V30 12 H -1.9531 -2.3438 0.0000 0
M  V30 13 H 0.9766 2.3438 0.0000 0
M  V30 14 H 2.9297 -1.3672 0.0000 0
M  V30 15 H 2.7344 0.9766 0.0000 0
M  V30 END ATOM
M  V30 BEGIN BOND
M  V30 1 2 1 2
M  V30 2 2 1 3
M  V30 3 1 1 10
M  V30 4 1 2 4
M  V30 5 1 2 12
M  V30 6 1 3 5
M  V30 7 1 3 11
M  V30 8 1 4 5
M  V30 9 2 4 8
M  V30 10 2 5 6
M  V30 11 1 6 9
M  V30 12 1 6 13
M  V30 13 1 7 8
M  V30 14 1 7 9
M  V30 15 1 7 14
M  V30 16 1 9 15
M  V30 END BOND
M  V30 END CTAB
M  END
>  <ID>
977
$$$$
Structure_978
Score 	 4.0, smilesprid 	smiles	 smilestrue 	smiles	 similartanimoto 	0	 similardice 	0

   15   16  0  0  0  0            999 V3000
M  V30 BEGIN CTAB
M  V30 COUNTS 15 16 0 0 0
M  V30 BEGIN ATOM
M  V30 1 C -2.5391 -0.1953 0.0000 0
M  V30 2 C -1.7578 -1.3672 0.0000 0
M  V30 3 C -1.7578 0.9766 0.0000 0
M  V30 4 C -0.3906 -0.7812 0.0000 0
M  V30 5 C -0.3906 0.5859 0.0000 0
M  V30 6 C 0.7812 1.1719 0.0000 0
M  V30 7 C 1.9531 -0.7812 0.0000 0
M  V30 8 N 0.7812 -1.5625 0.0000 0
M  V30 9 N 1.9531 0.3906 0.0000 0
M  V30 10 H -3.5156 -0.1953 0.0000 0
M  V30 11 H -2.1484 2.1484 0.0000 0
M  V30 12 H -1.9531 -2.3438 0.0000 0
M  V30 13 H 0.9766 2.3438 0.0000 0
M  V30 14 H 2.9297 -1.3672 0.0000 0
M  V30 15 H 2.7344 0.9766 0.0000 0
M  V30 END ATOM
M  V30 BEGIN BOND
M  V30 1 3 1 2
M  V30 2 2 1 3
M  V30 3 1 1 10
M  V30 4 1 2 4
M  V30 5 1 2 12
M  V30 6 1 3 5
M  V30 7 1 3 11
M  V30 8 1 4 5
M  V30 9 2 4 8
M  V30 10 2 5 6
M  V30 11 1 6 9
M  V30 12 1 6 13
M  V30 13 1 7 8
M  V30 14 1 7 9
M  V30 15 1 7 14
M  V30 16 1 9 15
M  V30 END BOND
M  V30 END CTAB
M  END
>  <ID>
978
$$$$
Structure_979
Score 	 4.0, smilesprid 	smiles	 smilestrue 	smiles	 similartanimoto 	0	 similardice 	0

   15   16  0  0  0  0            999 V3000
M  V30 BEGIN CTAB
M  V30 COUNTS 15 16 0 0 0
M  V30 BEGIN ATOM
M  V30 1 C -2.5391 -0.1953 0.0000 0
M  V30 2 C -1.7578 -1.3672 0.0000 0
M  V30 3 C -1.7578 0.9766 0.0000 0
M  V30 4 C -0.3906 -0.7812 0.0000 0
M  V30 5 C -0.3906 0.5859 0.0000 0
M  V30 6 C 0.7812 1.1719 0.0000 0
M  V30 7 C 1.9531 -0.7812 0.0000 0
M  V30 8 N 0.7812 -1.5625 0.0000 0
M  V30 9 N 1.9531 0.3906 0.0000 0
M  V30 10 H -3.5156 -0.1953 0.0000 0
M  V30 11 H -2.1484 2.1484 0.0000 0
M  V30 12 H -1.9531 -2.3438 0.0000 0
M  V30 13 H 0.9766 2.3438 0.0000 0
M  V30 14 H 2.9297 -1.3672 0.0000 0
M  V30 15 H 2.7344 0.9766 0.0000 0
M  V30 END ATOM
M  V30 BEGIN BOND
M  V30 1 1 1 2
M  V30 2 3 1 3
M  V30 3 1 1 10
M  V30 4 1 2 4
M  V30 5 1 2 12
M  V30 6 1 3 5
M  V30 7 1 3 11
M  V30 8 1 4 5
M  V30 9 2 4 8
M  V30 10 2 5 6
M  V30 11 1 6 9
M  V30 12 1 6 13
M  V30 13 1 7 8
M  V30 14 1 7 9
M  V30 15 1 7 14
M  V30 16 1 9 15
M  V30 END BOND
M  V30 END CTAB
M  END
>  <ID>
979
$$$$
Structure_980
Score 	 4.0, smilesprid 	smiles	 smilestrue 	smiles	 similartanimoto 	0	 similardice 	0

   15   16  0  0  0  0            999 V3000
M  V30 BEGIN CTAB
M  V30 COUNTS 15 16 0 0 0
M  V30 BEGIN ATOM
M  V30 1 C -2.5391 -0.1953 0.0000 0
M  V30 2 C -1.7578 -1.3672 0.0000 0
M  V30 3 C -1.7578 0.9766 0.0000 0
M  V30 4 C -0.3906 -0.7812 0.0000 0
M  V30 5 C -0.3906 0.5859 0.0000 0
M  V30 6 C 0.7812 1.1719 0.0000 0
M  V30 7 C 1.9531 -0.7812 0.0000 0
M  V30 8 N 0.7812 -1.5625 0.0000 0
M  V30 9 N 1.9531 0.3906 0.0000 0
M  V30 10 H -3.5156 -0.1953 0.0000 0
M  V30 11 H -2.1484 2.1484 0.0000 0
M  V30 12 H -1.9531 -2.3438 0.0000 0
M  V30 13 H 0.9766 2.3438 0.0000 0
M  V30 14 H 2.9297 -1.3672 0.0000 0
M  V30 15 H 2.7344 0.9766 0.0000 0
M  V30 END ATOM
M  V30 BEGIN BOND
M  V30 1 2 1 2
M  V30 2 3 1 3
M  V30 3 1 1 10
M  V30 4 1 2 4
M  V30 5 1 2 12
M  V30 6 1 3 5
M  V30 7 1 3 11
M  V30 8 1 4 5
M  V30 9 2 4 8
M  V30 10 2 5 6
M  V30 11 1 6 9
M  V30 12 1 6 13
M  V30 13 1 7 8
M  V30 14 1 7 9
M  V30 15 1 7 14
M  V30 16 1 9 15
M  V30 END BOND
M  V30 END CTAB
M  END
>  <ID>
980
$$$$
Structure_981
Score 	 6.0, smilesprid 	smiles	 smilestrue 	smiles	 similartanimoto 	0	 similardice 	0

   15   16  0  0  0  0            999 V3000
M  V30 BEGIN CTAB
M  V30 COUNTS 15 16 0 0 0
M  V30 BEGIN ATOM
M  V30 1 C -2.5391 -0.1953 0.0000 0
M  V30 2 C -1.7578 -1.3672 0.0000 0
M  V30 3 C -1.7578 0.9766 0.0000 0
M  V30 4 C -0.3906 -0.7812 0.0000 0
M  V30 5 C -0.3906 0.5859 0.0000 0
M  V30 6 C 0.7812 1.1719 0.0000 0
M  V30 7 C 1.9531 -0.7812 0.0000 0
M  V30 8 N 0.7812 -1.5625 0.0000 0
M  V30 9 N 1.9531 0.3906 0.0000 0
M  V30 10 H -3.5156 -0.1953 0.0000 0
M  V30 11 H -2.1484 2.1484 0.0000 0
M  V30 12 H -1.9531 -2.3438 0.0000 0
M  V30 13 H 0.9766 2.3438 0.0000 0
M  V30 14 H 2.9297 -1.3672 0.0000 0
M  V30 15 H 2.7344 0.9766 0.0000 0
M  V30 END ATOM
M  V30 BEGIN BOND
M  V30 1 3 1 2
M  V30 2 3 1 3
M  V30 3 1 1 10
M  V30 4 1 2 4
M  V30 5 1 2 12
M  V30 6 1 3 5
M  V30 7 1 3 11
M  V30 8 1 4 5
M  V30 9 2 4 8
M  V30 10 2 5 6
M  V30 11 1 6 9
M  V30 12 1 6 13
M  V30 13 1 7 8
M  V30 14 1 7 9
M  V30 15 1 7 14
M  V30 16 1 9 15
M  V30 END BOND
M  V30 END CTAB
M  END
>  <ID>
981
$$$$
Structure_982
Score 	 4.0, smilesprid 	smiles	 smilestrue 	smiles	 similartanimoto 	0	 similardice 	0

   15   16  0  0  0  0            999 V3000
M  V30 BEGIN CTAB
M  V30 COUNTS 15 16 0 0 0
M  V30 BEGIN ATOM
M  V30 1 C -2.5391 -0.1953 0.0000 0
M  V30 2 C -1.7578 -1.3672 0.0000 0
M  V30 3 C -1.7578 0.9766 0.0000 0
M  V30 4 C -0.3906 -0.7812 0.0000 0
M  V30 5 C -0.3906 0.5859 0.0000 0
M  V30 6 C 0.7812 1.1719 0.0000 0
M  V30 7 C 1.9531 -0.7812 0.0000 0
M  V30 8 N 0.7812 -1.5625 0.0000 0
M  V30 9 N 1.9531 0.3906 0.0000 0
M  V30 10 H -3.5156 -0.1953 0.0000 0
M  V30 11 H -2.1484 2.1484 0.0000 0
M  V30 12 H -1.9531 -2.3438 0.0000 0
M  V30 13 H 0.9766 2.3438 0.0000 0
M  V30 14 H 2.9297 -1.3672 0.0000 0
M  V30 15 H 2.7344 0.9766 0.0000 0
M  V30 END ATOM
M  V30 BEGIN BOND
M  V30 1 1 1 2
M  V30 2 1 1 3
M  V30 3 1 1 10
M  V30 4 1 2 4
M  V30 5 1 2 12
M  V30 6 2 3 5
M  V30 7 1 3 11
M  V30 8 1 4 5
M  V30 9 2 4 8
M  V30 10 2 5 6
M  V30 11 1 6 9
M  V30 12 1 6 13
M  V30 13 1 7 8
M  V30 14 1 7 9
M  V30 15 1 7 14
M  V30 16 1 9 15
M  V30 END BOND
M  V30 END CTAB
M  END
>  <ID>
982
$$$$
Structure_983
Score 	 2.0, smilesprid 	smiles	 smilestrue 	smiles	 similartanimoto 	0	 similardice 	0

   15   16  0  0  0  0            999 V3000
M  V30 BEGIN CTAB
M  V30 COUNTS 15 16 0 0 0
M  V30 BEGIN ATOM
M  V30 1 C -2.5391 -0.1953 0.0000 0
M  V30 2 C -1.7578 -1.3672 0.0000 0
M  V30 3 C -1.7578 0.9766 0.0000 0
M  V30 4 C -0.3906 -0.7812 0.0000 0
M  V30 5 C -0.3906 0.5859 0.0000 0
M  V30 6 C 0.7812 1.1719 0.0000 0
M  V30 7 C 1.9531 -0.7812 0.0000 0
M  V30 8 N 0.7812 -1.5625 0.0000 0
M  V30 9 N 1.9531 0.3906 0.0000 0
M  V30 10 H -3.5156 -0.1953 0.0000 0
M  V30 11 H -2.1484 2.1484 0.0000 0
M  V30 12 H -1.9531 -2.3438 0.0000 0
M  V30 13 H 0.9766 2.3438 0.0000 0
M  V30 14 H 2.9297 -1.3672 0.0000 0
M  V30 15 H 2.7344 0.9766 0.0000 0
M  V30 END ATOM
M  V30 BEGIN BOND
M  V30 1 2 1 2
M  V30 2 1 1 3
M  V30 3 1 1 10
M  V30 4 1 2 4
M  V30 5 1 2 12
M  V30 6 2 3 5
M  V30 7 1 3 11
M  V30 8 1 4 5
M  V30 9 2 4 8
M  V30 10 2 5 6
M  V30 11 1 6 9
M  V30 12 1 6 13
M  V30 13 1 7 8
M  V30 14 1 7 9
M  V30 15 1 7 14
M  V30 16 1 9 15
M  V30 END BOND
M  V30 END CTAB
M  END
>  <ID>
983
$$$$
Structure_984
Score 	 4.0, smilesprid 	smiles	 smilestrue 	smiles	 similartanimoto 	0	 similardice 	0

   15   16  0  0  0  0            999 V3000
M  V30 BEGIN CTAB
M  V30 COUNTS 15 16 0 0 0
M  V30 BEGIN ATOM
M  V30 1 C -2.5391 -0.1953 0.0000 0
M  V30 2 C -1.7578 -1.3672 0.0000 0
M  V30 3 C -1.7578 0.9766 0.0000 0
M  V30 4 C -0.3906 -0.7812 0.0000 0
M  V30 5 C -0.3906 0.5859 0.0000 0
M  V30 6 C 0.7812 1.1719 0.0000 0
M  V30 7 C 1.9531 -0.7812 0.0000 0
M  V30 8 N 0.7812 -1.5625 0.0000 0
M  V30 9 N 1.9531 0.3906 0.0000 0
M  V30 10 H -3.5156 -0.1953 0.0000 0
M  V30 11 H -2.1484 2.1484 0.0000 0
M  V30 12 H -1.9531 -2.3438 0.0000 0
M  V30 13 H 0.9766 2.3438 0.0000 0
M  V30 14 H 2.9297 -1.3672 0.0000 0
M  V30 15 H 2.7344 0.9766 0.0000 0
M  V30 END ATOM
M  V30 BEGIN BOND
M  V30 1 3 1 2
M  V30 2 1 1 3
M  V30 3 1 1 10
M  V30 4 1 2 4
M  V30 5 1 2 12
M  V30 6 2 3 5
M  V30 7 1 3 11
M  V30 8 1 4 5
M  V30 9 2 4 8
M  V30 10 2 5 6
M  V30 11 1 6 9
M  V30 12 1 6 13
M  V30 13 1 7 8
M  V30 14 1 7 9
M  V30 15 1 7 14
M  V30 16 1 9 15
M  V30 END BOND
M  V30 END CTAB
M  END
>  <ID>
984
$$$$
Structure_985
Score 	 4.0, smilesprid 	smiles	 smilestrue 	smiles	 similartanimoto 	0	 similardice 	0

   15   16  0  0  0  0            999 V3000
M  V30 BEGIN CTAB
M  V30 COUNTS 15 16 0 0 0
M  V30 BEGIN ATOM
M  V30 1 C -2.5391 -0.1953 0.0000 0
M  V30 2 C -1.7578 -1.3672 0.0000 0
M  V30 3 C -1.7578 0.9766 0.0000 0
M  V30 4 C -0.3906 -0.7812 0.0000 0
M  V30 5 C -0.3906 0.5859 0.0000 0
M  V30 6 C 0.7812 1.1719 0.0000 0
M  V30 7 C 1.9531 -0.7812 0.0000 0
M  V30 8 N 0.7812 -1.5625 0.0000 0
M  V30 9 N 1.9531 0.3906 0.0000 0
M  V30 10 H -3.5156 -0.1953 0.0000 0
M  V30 11 H -2.1484 2.1484 0.0000 0
M  V30 12 H -1.9531 -2.3438 0.0000 0
M  V30 13 H 0.9766 2.3438 0.0000 0
M  V30 14 H 2.9297 -1.3672 0.0000 0
M  V30 15 H 2.7344 0.9766 0.0000 0
M  V30 END ATOM
M  V30 BEGIN BOND
M  V30 1 1 1 2
M  V30 2 2 1 3
M  V30 3 1 1 10
M  V30 4 1 2 4
M  V30 5 1 2 12
M  V30 6 2 3 5
M  V30 7 1 3 11
M  V30 8 1 4 5
M  V30 9 2 4 8
M  V30 10 2 5 6
M  V30 11 1 6 9
M  V30 12 1 6 13
M  V30 13 1 7 8
M  V30 14 1 7 9
M  V30 15 1 7 14
M  V30 16 1 9 15
M  V30 END BOND
M  V30 END CTAB
M  END
>  <ID>
985
$$$$
Structure_986
Score 	 4.0, smilesprid 	smiles	 smilestrue 	smiles	 similartanimoto 	0	 similardice 	0

   15   16  0  0  0  0            999 V3000
M  V30 BEGIN CTAB
M  V30 COUNTS 15 16 0 0 0
M  V30 BEGIN ATOM
M  V30 1 C -2.5391 -0.1953 0.0000 0
M  V30 2 C -1.7578 -1.3672 0.0000 0
M  V30 3 C -1.7578 0.9766 0.0000 0
M  V30 4 C -0.3906 -0.7812 0.0000 0
M  V30 5 C -0.3906 0.5859 0.0000 0
M  V30 6 C 0.7812 1.1719 0.0000 0
M  V30 7 C 1.9531 -0.7812 0.0000 0
M  V30 8 N 0.7812 -1.5625 0.0000 0
M  V30 9 N 1.9531 0.3906 0.0000 0
M  V30 10 H -3.5156 -0.1953 0.0000 0
M  V30 11 H -2.1484 2.1484 0.0000 0
M  V30 12 H -1.9531 -2.3438 0.0000 0
M  V30 13 H 0.9766 2.3438 0.0000 0
M  V30 14 H 2.9297 -1.3672 0.0000 0
M  V30 15 H 2.7344 0.9766 0.0000 0
M  V30 END ATOM
M  V30 BEGIN BOND
M  V30 1 2 1 2
M  V30 2 2 1 3
M  V30 3 1 1 10
M  V30 4 1 2 4
M  V30 5 1 2 12
M  V30 6 2 3 5
M  V30 7 1 3 11
M  V30 8 1 4 5
M  V30 9 2 4 8
M  V30 10 2 5 6
M  V30 11 1 6 9
M  V30 12 1 6 13
M  V30 13 1 7 8
M  V30 14 1 7 9
M  V30 15 1 7 14
M  V30 16 1 9 15
M  V30 END BOND
M  V30 END CTAB
M  END
>  <ID>
986
$$$$
Structure_987
Score 	 6.0, smilesprid 	smiles	 smilestrue 	smiles	 similartanimoto 	0	 similardice 	0

   15   16  0  0  0  0            999 V3000
M  V30 BEGIN CTAB
M  V30 COUNTS 15 16 0 0 0
M  V30 BEGIN ATOM
M  V30 1 C -2.5391 -0.1953 0.0000 0
M  V30 2 C -1.7578 -1.3672 0.0000 0
M  V30 3 C -1.7578 0.9766 0.0000 0
M  V30 4 C -0.3906 -0.7812 0.0000 0
M  V30 5 C -0.3906 0.5859 0.0000 0
M  V30 6 C 0.7812 1.1719 0.0000 0
M  V30 7 C 1.9531 -0.7812 0.0000 0
M  V30 8 N 0.7812 -1.5625 0.0000 0
M  V30 9 N 1.9531 0.3906 0.0000 0
M  V30 10 H -3.5156 -0.1953 0.0000 0
M  V30 11 H -2.1484 2.1484 0.0000 0
M  V30 12 H -1.9531 -2.3438 0.0000 0
M  V30 13 H 0.9766 2.3438 0.0000 0
M  V30 14 H 2.9297 -1.3672 0.0000 0
M  V30 15 H 2.7344 0.9766 0.0000 0
M  V30 END ATOM
M  V30 BEGIN BOND
M  V30 1 3 1 2
M  V30 2 2 1 3
M  V30 3 1 1 10
M  V30 4 1 2 4
M  V30 5 1 2 12
M  V30 6 2 3 5
M  V30 7 1 3 11
M  V30 8 1 4 5
M  V30 9 2 4 8
M  V30 10 2 5 6
M  V30 11 1 6 9
M  V30 12 1 6 13
M  V30 13 1 7 8
M  V30 14 1 7 9
M  V30 15 1 7 14
M  V30 16 1 9 15
M  V30 END BOND
M  V30 END CTAB
M  END
>  <ID>
987
$$$$
Structure_988
Score 	 6.0, smilesprid 	smiles	 smilestrue 	smiles	 similartanimoto 	0	 similardice 	0

   15   16  0  0  0  0            999 V3000
M  V30 BEGIN CTAB
M  V30 COUNTS 15 16 0 0 0
M  V30 BEGIN ATOM
M  V30 1 C -2.5391 -0.1953 0.0000 0
M  V30 2 C -1.7578 -1.3672 0.0000 0
M  V30 3 C -1.7578 0.9766 0.0000 0
M  V30 4 C -0.3906 -0.7812 0.0000 0
M  V30 5 C -0.3906 0.5859 0.0000 0
M  V30 6 C 0.7812 1.1719 0.0000 0
M  V30 7 C 1.9531 -0.7812 0.0000 0
M  V30 8 N 0.7812 -1.5625 0.0000 0
M  V30 9 N 1.9531 0.3906 0.0000 0
M  V30 10 H -3.5156 -0.1953 0.0000 0
M  V30 11 H -2.1484 2.1484 0.0000 0
M  V30 12 H -1.9531 -2.3438 0.0000 0
M  V30 13 H 0.9766 2.3438 0.0000 0
M  V30 14 H 2.9297 -1.3672 0.0000 0
M  V30 15 H 2.7344 0.9766 0.0000 0
M  V30 END ATOM
M  V30 BEGIN BOND
M  V30 1 1 1 2
M  V30 2 3 1 3
M  V30 3 1 1 10
M  V30 4 1 2 4
M  V30 5 1 2 12
M  V30 6 2 3 5
M  V30 7 1 3 11
M  V30 8 1 4 5
M  V30 9 2 4 8
M  V30 10 2 5 6
M  V30 11 1 6 9
M  V30 12 1 6 13
M  V30 13 1 7 8
M  V30 14 1 7 9
M  V30 15 1 7 14
M  V30 16 1 9 15
M  V30 END BOND
M  V30 END CTAB
M  END
>  <ID>
988
$$$$
Structure_989
Score 	 6.0, smilesprid 	smiles	 smilestrue 	smiles	 similartanimoto 	0	 similardice 	0

   15   16  0  0  0  0            999 V3000
M  V30 BEGIN CTAB
M  V30 COUNTS 15 16 0 0 0
M  V30 BEGIN ATOM
M  V30 1 C -2.5391 -0.1953 0.0000 0
M  V30 2 C -1.7578 -1.3672 0.0000 0
M  V30 3 C -1.7578 0.9766 0.0000 0
M  V30 4 C -0.3906 -0.7812 0.0000 0
M  V30 5 C -0.3906 0.5859 0.0000 0
M  V30 6 C 0.7812 1.1719 0.0000 0
M  V30 7 C 1.9531 -0.7812 0.0000 0
M  V30 8 N 0.7812 -1.5625 0.0000 0
M  V30 9 N 1.9531 0.3906 0.0000 0
M  V30 10 H -3.5156 -0.1953 0.0000 0
M  V30 11 H -2.1484 2.1484 0.0000 0
M  V30 12 H -1.9531 -2.3438 0.0000 0
M  V30 13 H 0.9766 2.3438 0.0000 0
M  V30 14 H 2.9297 -1.3672 0.0000 0
M  V30 15 H 2.7344 0.9766 0.0000 0
M  V30 END ATOM
M  V30 BEGIN BOND
M  V30 1 2 1 2
M  V30 2 3 1 3
M  V30 3 1 1 10
M  V30 4 1 2 4
M  V30 5 1 2 12
M  V30 6 2 3 5
M  V30 7 1 3 11
M  V30 8 1 4 5
M  V30 9 2 4 8
M  V30 10 2 5 6
M  V30 11 1 6 9
M  V30 12 1 6 13
M  V30 13 1 7 8
M  V30 14 1 7 9
M  V30 15 1 7 14
M  V30 16 1 9 15
M  V30 END BOND
M  V30 END CTAB
M  END
>  <ID>
989
$$$$
Structure_990
Score 	 8.0, smilesprid 	smiles	 smilestrue 	smiles	 similartanimoto 	0	 similardice 	0

   15   16  0  0  0  0            999 V3000
M  V30 BEGIN CTAB
M  V30 COUNTS 15 16 0 0 0
M  V30 BEGIN ATOM
M  V30 1 C -2.5391 -0.1953 0.0000 0
M  V30 2 C -1.7578 -1.3672 0.0000 0
M  V30 3 C -1.7578 0.9766 0.0000 0
M  V30 4 C -0.3906 -0.7812 0.0000 0
M  V30 5 C -0.3906 0.5859 0.0000 0
M  V30 6 C 0.7812 1.1719 0.0000 0
M  V30 7 C 1.9531 -0.7812 0.0000 0
M  V30 8 N 0.7812 -1.5625 0.0000 0
M  V30 9 N 1.9531 0.3906 0.0000 0
M  V30 10 H -3.5156 -0.1953 0.0000 0
M  V30 11 H -2.1484 2.1484 0.0000 0
M  V30 12 H -1.9531 -2.3438 0.0000 0
M  V30 13 H 0.9766 2.3438 0.0000 0
M  V30 14 H 2.9297 -1.3672 0.0000 0
M  V30 15 H 2.7344 0.9766 0.0000 0
M  V30 END ATOM
M  V30 BEGIN BOND
M  V30 1 3 1 2
M  V30 2 3 1 3
M  V30 3 1 1 10
M  V30 4 1 2 4
M  V30 5 1 2 12
M  V30 6 2 3 5
M  V30 7 1 3 11
M  V30 8 1 4 5
M  V30 9 2 4 8
M  V30 10 2 5 6
M  V30 11 1 6 9
M  V30 12 1 6 13
M  V30 13 1 7 8
M  V30 14 1 7 9
M  V30 15 1 7 14
M  V30 16 1 9 15
M  V30 END BOND
M  V30 END CTAB
M  END
>  <ID>
990
$$$$
Structure_991
Score 	 6.0, smilesprid 	smiles	 smilestrue 	smiles	 similartanimoto 	0	 similardice 	0

   15   16  0  0  0  0            999 V3000
M  V30 BEGIN CTAB
M  V30 COUNTS 15 16 0 0 0
M  V30 BEGIN ATOM
M  V30 1 C -2.5391 -0.1953 0.0000 0
M  V30 2 C -1.7578 -1.3672 0.0000 0
M  V30 3 C -1.7578 0.9766 0.0000 0
M  V30 4 C -0.3906 -0.7812 0.0000 0
M  V30 5 C -0.3906 0.5859 0.0000 0
M  V30 6 C 0.7812 1.1719 0.0000 0
M  V30 7 C 1.9531 -0.7812 0.0000 0
M  V30 8 N 0.7812 -1.5625 0.0000 0
M  V30 9 N 1.9531 0.3906 0.0000 0
M  V30 10 H -3.5156 -0.1953 0.0000 0
M  V30 11 H -2.1484 2.1484 0.0000 0
M  V30 12 H -1.9531 -2.3438 0.0000 0
M  V30 13 H 0.9766 2.3438 0.0000 0
M  V30 14 H 2.9297 -1.3672 0.0000 0
M  V30 15 H 2.7344 0.9766 0.0000 0
M  V30 END ATOM
M  V30 BEGIN BOND
M  V30 1 1 1 2
M  V30 2 1 1 3
M  V30 3 1 1 10
M  V30 4 1 2 4
M  V30 5 1 2 12
M  V30 6 3 3 5
M  V30 7 1 3 11
M  V30 8 1 4 5
M  V30 9 2 4 8
M  V30 10 2 5 6
M  V30 11 1 6 9
M  V30 12 1 6 13
M  V30 13 1 7 8
M  V30 14 1 7 9
M  V30 15 1 7 14
M  V30 16 1 9 15
M  V30 END BOND
M  V30 END CTAB
M  END
>  <ID>
991
$$$$
Structure_992
Score 	 4.0, smilesprid 	smiles	 smilestrue 	smiles	 similartanimoto 	0	 similardice 	0

   15   16  0  0  0  0            999 V3000
M  V30 BEGIN CTAB
M  V30 COUNTS 15 16 0 0 0
M  V30 BEGIN ATOM
M  V30 1 C -2.5391 -0.1953 0.0000 0
M  V30 2 C -1.7578 -1.3672 0.0000 0
M  V30 3 C -1.7578 0.9766 0.0000 0
M  V30 4 C -0.3906 -0.7812 0.0000 0
M  V30 5 C -0.3906 0.5859 0.0000 0
M  V30 6 C 0.7812 1.1719 0.0000 0
M  V30 7 C 1.9531 -0.7812 0.0000 0
M  V30 8 N 0.7812 -1.5625 0.0000 0
M  V30 9 N 1.9531 0.3906 0.0000 0
M  V30 10 H -3.5156 -0.1953 0.0000 0
M  V30 11 H -2.1484 2.1484 0.0000 0
M  V30 12 H -1.9531 -2.3438 0.0000 0
M  V30 13 H 0.9766 2.3438 0.0000 0
M  V30 14 H 2.9297 -1.3672 0.0000 0
M  V30 15 H 2.7344 0.9766 0.0000 0
M  V30 END ATOM
M  V30 BEGIN BOND
M  V30 1 2 1 2
M  V30 2 1 1 3
M  V30 3 1 1 10
M  V30 4 1 2 4
M  V30 5 1 2 12
M  V30 6 3 3 5
M  V30 7 1 3 11
M  V30 8 1 4 5
M  V30 9 2 4 8
M  V30 10 2 5 6
M  V30 11 1 6 9
M  V30 12 1 6 13
M  V30 13 1 7 8
M  V30 14 1 7 9
M  V30 15 1 7 14
M  V30 16 1 9 15
M  V30 END BOND
M  V30 END CTAB
M  END
>  <ID>
992
$$$$
Structure_993
Score 	 6.0, smilesprid 	smiles	 smilestrue 	smiles	 similartanimoto 	0	 similardice 	0

   15   16  0  0  0  0            999 V3000
M  V30 BEGIN CTAB
M  V30 COUNTS 15 16 0 0 0
M  V30 BEGIN ATOM
M  V30 1 C -2.5391 -0.1953 0.0000 0
M  V30 2 C -1.7578 -1.3672 0.0000 0
M  V30 3 C -1.7578 0.9766 0.0000 0
M  V30 4 C -0.3906 -0.7812 0.0000 0
M  V30 5 C -0.3906 0.5859 0.0000 0
M  V30 6 C 0.7812 1.1719 0.0000 0
M  V30 7 C 1.9531 -0.7812 0.0000 0
M  V30 8 N 0.7812 -1.5625 0.0000 0
M  V30 9 N 1.9531 0.3906 0.0000 0
M  V30 10 H -3.5156 -0.1953 0.0000 0
M  V30 11 H -2.1484 2.1484 0.0000 0
M  V30 12 H -1.9531 -2.3438 0.0000 0
M  V30 13 H 0.9766 2.3438 0.0000 0
M  V30 14 H 2.9297 -1.3672 0.0000 0
M  V30 15 H 2.7344 0.9766 0.0000 0
M  V30 END ATOM
M  V30 BEGIN BOND
M  V30 1 3 1 2
M  V30 2 1 1 3
M  V30 3 1 1 10
M  V30 4 1 2 4
M  V30 5 1 2 12
M  V30 6 3 3 5
M  V30 7 1 3 11
M  V30 8 1 4 5
M  V30 9 2 4 8
M  V30 10 2 5 6
M  V30 11 1 6 9
M  V30 12 1 6 13
M  V30 13 1 7 8
M  V30 14 1 7 9
M  V30 15 1 7 14
M  V30 16 1 9 15
M  V30 END BOND
M  V30 END CTAB
M  END
>  <ID>
993
$$$$
Structure_994
Score 	 6.0, smilesprid 	smiles	 smilestrue 	smiles	 similartanimoto 	0	 similardice 	0

   15   16  0  0  0  0            999 V3000
M  V30 BEGIN CTAB
M  V30 COUNTS 15 16 0 0 0
M  V30 BEGIN ATOM
M  V30 1 C -2.5391 -0.1953 0.0000 0
M  V30 2 C -1.7578 -1.3672 0.0000 0
M  V30 3 C -1.7578 0.9766 0.0000 0
M  V30 4 C -0.3906 -0.7812 0.0000 0
M  V30 5 C -0.3906 0.5859 0.0000 0
M  V30 6 C 0.7812 1.1719 0.0000 0
M  V30 7 C 1.9531 -0.7812 0.0000 0
M  V30 8 N 0.7812 -1.5625 0.0000 0
M  V30 9 N 1.9531 0.3906 0.0000 0
M  V30 10 H -3.5156 -0.1953 0.0000 0
M  V30 11 H -2.1484 2.1484 0.0000 0
M  V30 12 H -1.9531 -2.3438 0.0000 0
M  V30 13 H 0.9766 2.3438 0.0000 0
M  V30 14 H 2.9297 -1.3672 0.0000 0
M  V30 15 H 2.7344 0.9766 0.0000 0
M  V30 END ATOM
M  V30 BEGIN BOND
M  V30 1 1 1 2
M  V30 2 2 1 3
M  V30 3 1 1 10
M  V30 4 1 2 4
M  V30 5 1 2 12
M  V30 6 3 3 5
M  V30 7 1 3 11
M  V30 8 1 4 5
M  V30 9 2 4 8
M  V30 10 2 5 6
M  V30 11 1 6 9
M  V30 12 1 6 13
M  V30 13 1 7 8
M  V30 14 1 7 9
M  V30 15 1 7 14
M  V30 16 1 9 15
M  V30 END BOND
M  V30 END CTAB
M  END
>  <ID>
994
$$$$
Structure_995
Score 	 6.0, smilesprid 	smiles	 smilestrue 	smiles	 similartanimoto 	0	 similardice 	0

   15   16  0  0  0  0            999 V3000
M  V30 BEGIN CTAB
M  V30 COUNTS 15 16 0 0 0
M  V30 BEGIN ATOM
M  V30 1 C -2.5391 -0.1953 0.0000 0
M  V30 2 C -1.7578 -1.3672 0.0000 0
M  V30 3 C -1.7578 0.9766 0.0000 0
M  V30 4 C -0.3906 -0.7812 0.0000 0
M  V30 5 C -0.3906 0.5859 0.0000 0
M  V30 6 C 0.7812 1.1719 0.0000 0
M  V30 7 C 1.9531 -0.7812 0.0000 0
M  V30 8 N 0.7812 -1.5625 0.0000 0
M  V30 9 N 1.9531 0.3906 0.0000 0
M  V30 10 H -3.5156 -0.1953 0.0000 0
M  V30 11 H -2.1484 2.1484 0.0000 0
M  V30 12 H -1.9531 -2.3438 0.0000 0
M  V30 13 H 0.9766 2.3438 0.0000 0
M  V30 14 H 2.9297 -1.3672 0.0000 0
M  V30 15 H 2.7344 0.9766 0.0000 0
M  V30 END ATOM
M  V30 BEGIN BOND
M  V30 1 2 1 2
M  V30 2 2 1 3
M  V30 3 1 1 10
M  V30 4 1 2 4
M  V30 5 1 2 12
M  V30 6 3 3 5
M  V30 7 1 3 11
M  V30 8 1 4 5
M  V30 9 2 4 8
M  V30 10 2 5 6
M  V30 11 1 6 9
M  V30 12 1 6 13
M  V30 13 1 7 8
M  V30 14 1 7 9
M  V30 15 1 7 14
M  V30 16 1 9 15
M  V30 END BOND
M  V30 END CTAB
M  END
>  <ID>
995
$$$$
Structure_996
Score 	 8.0, smilesprid 	smiles	 smilestrue 	smiles	 similartanimoto 	0	 similardice 	0

   15   16  0  0  0  0            999 V3000
M  V30 BEGIN CTAB
M  V30 COUNTS 15 16 0 0 0
M  V30 BEGIN ATOM
M  V30 1 C -2.5391 -0.1953 0.0000 0
M  V30 2 C -1.7578 -1.3672 0.0000 0
M  V30 3 C -1.7578 0.9766 0.0000 0
M  V30 4 C -0.3906 -0.7812 0.0000 0
M  V30 5 C -0.3906 0.5859 0.0000 0
M  V30 6 C 0.7812 1.1719 0.0000 0
M  V30 7 C 1.9531 -0.7812 0.0000 0
M  V30 8 N 0.7812 -1.5625 0.0000 0
M  V30 9 N 1.9531 0.3906 0.0000 0
M  V30 10 H -3.5156 -0.1953 0.0000 0
M  V30 11 H -2.1484 2.1484 0.0000 0
M  V30 12 H -1.9531 -2.3438 0.0000 0
M  V30 13 H 0.9766 2.3438 0.0000 0
M  V30 14 H 2.9297 -1.3672 0.0000 0
M  V30 15 H 2.7344 0.9766 0.0000 0
M  V30 END ATOM
M  V30 BEGIN BOND
M  V30 1 3 1 2
M  V30 2 2 1 3
M  V30 3 1 1 10
M  V30 4 1 2 4
M  V30 5 1 2 12
M  V30 6 3 3 5
M  V30 7 1 3 11
M  V30 8 1 4 5
M  V30 9 2 4 8
M  V30 10 2 5 6
M  V30 11 1 6 9
M  V30 12 1 6 13
M  V30 13 1 7 8
M  V30 14 1 7 9
M  V30 15 1 7 14
M  V30 16 1 9 15
M  V30 END BOND
M  V30 END CTAB
M  END
>  <ID>
996
$$$$
Structure_997
Score 	 8.0, smilesprid 	smiles	 smilestrue 	smiles	 similartanimoto 	0	 similardice 	0

   15   16  0  0  0  0            999 V3000
M  V30 BEGIN CTAB
M  V30 COUNTS 15 16 0 0 0
M  V30 BEGIN ATOM
M  V30 1 C -2.5391 -0.1953 0.0000 0
M  V30 2 C -1.7578 -1.3672 0.0000 0
M  V30 3 C -1.7578 0.9766 0.0000 0
M  V30 4 C -0.3906 -0.7812 0.0000 0
M  V30 5 C -0.3906 0.5859 0.0000 0
M  V30 6 C 0.7812 1.1719 0.0000 0
M  V30 7 C 1.9531 -0.7812 0.0000 0
M  V30 8 N 0.7812 -1.5625 0.0000 0
M  V30 9 N 1.9531 0.3906 0.0000 0
M  V30 10 H -3.5156 -0.1953 0.0000 0
M  V30 11 H -2.1484 2.1484 0.0000 0
M  V30 12 H -1.9531 -2.3438 0.0000 0
M  V30 13 H 0.9766 2.3438 0.0000 0
M  V30 14 H 2.9297 -1.3672 0.0000 0
M  V30 15 H 2.7344 0.9766 0.0000 0
M  V30 END ATOM
M  V30 BEGIN BOND
M  V30 1 1 1 2
M  V30 2 3 1 3
M  V30 3 1 1 10
M  V30 4 1 2 4
M  V30 5 1 2 12
M  V30 6 3 3 5
M  V30 7 1 3 11
M  V30 8 1 4 5
M  V30 9 2 4 8
M  V30 10 2 5 6
M  V30 11 1 6 9
M  V30 12 1 6 13
M  V30 13 1 7 8
M  V30 14 1 7 9
M  V30 15 1 7 14
M  V30 16 1 9 15
M  V30 END BOND
M  V30 END CTAB
M  END
>  <ID>
997
$$$$
Structure_998
Score 	 8.0, smilesprid 	smiles	 smilestrue 	smiles	 similartanimoto 	0	 similardice 	0

   15   16  0  0  0  0            999 V3000
M  V30 BEGIN CTAB
M  V30 COUNTS 15 16 0 0 0
M  V30 BEGIN ATOM
M  V30 1 C -2.5391 -0.1953 0.0000 0
M  V30 2 C -1.7578 -1.3672 0.0000 0
M  V30 3 C -1.7578 0.9766 0.0000 0
M  V30 4 C -0.3906 -0.7812 0.0000 0
M  V30 5 C -0.3906 0.5859 0.0000 0
M  V30 6 C 0.7812 1.1719 0.0000 0
M  V30 7 C 1.9531 -0.7812 0.0000 0
M  V30 8 N 0.7812 -1.5625 0.0000 0
M  V30 9 N 1.9531 0.3906 0.0000 0
M  V30 10 H -3.5156 -0.1953 0.0000 0
M  V30 11 H -2.1484 2.1484 0.0000 0
M  V30 12 H -1.9531 -2.3438 0.0000 0
M  V30 13 H 0.9766 2.3438 0.0000 0
M  V30 14 H 2.9297 -1.3672 0.0000 0
M  V30 15 H 2.7344 0.9766 0.0000 0
M  V30 END ATOM
M  V30 BEGIN BOND
M  V30 1 2 1 2
M  V30 2 3 1 3
M  V30 3 1 1 10
M  V30 4 1 2 4
M  V30 5 1 2 12
M  V30 6 3 3 5
M  V30 7 1 3 11
M  V30 8 1 4 5
M  V30 9 2 4 8
M  V30 10 2 5 6
M  V30 11 1 6 9
M  V30 12 1 6 13
M  V30 13 1 7 8
M  V30 14 1 7 9
M  V30 15 1 7 14
M  V30 16 1 9 15
M  V30 END BOND
M  V30 END CTAB
M  END
>  <ID>
998
$$$$
Structure_999
Score 	 10.0, smilesprid 	smiles	 smilestrue 	smiles	 similartanimoto 	0	 similardice 	0

   15   16  0  0  0  0            999 V3000
M  V30 BEGIN CTAB
M  V30 COUNTS 15 16 0 0 0
M  V30 BEGIN ATOM
M  V30 1 C -2.5391 -0.1953 0.0000 0
M  V30 2 C -1.7578 -1.3672 0.0000 0
M  V30 3 C -1.7578 0.9766 0.0000 0
M  V30 4 C -0.3906 -0.7812 0.0000 0
M  V30 5 C -0.3906 0.5859 0.0000 0
M  V30 6 C 0.7812 1.1719 0.0000 0
M  V30 7 C 1.9531 -0.7812 0.0000 0
M  V30 8 N 0.7812 -1.5625 0.0000 0
M  V30 9 N 1.9531 0.3906 0.0000 0
M  V30 10 H -3.5156 -0.1953 0.0000 0
M  V30 11 H -2.1484 2.1484 0.0000 0
M  V30 12 H -1.9531 -2.3438 0.0000 0
M  V30 13 H 0.9766 2.3438 0.0000 0
M  V30 14 H 2.9297 -1.3672 0.0000 0
M  V30 15 H 2.7344 0.9766 0.0000 0
M  V30 END ATOM
M  V30 BEGIN BOND
M  V30 1 3 1 2
M  V30 2 3 1 3
M  V30 3 1 1 10
M  V30 4 1 2 4
M  V30 5 1 2 12
M  V30 6 3 3 5
M  V30 7 1 3 11
M  V30 8 1 4 5
M  V30 9 2 4 8
M  V30 10 2 5 6
M  V30 11 1 6 9
M  V30 12 1 6 13
M  V30 13 1 7 8
M  V30 14 1 7 9
M  V30 15 1 7 14
M  V30 16 1 9 15
M  V30 END BOND
M  V30 END CTAB
M  END
>  <ID>
999
$$$$